Running ChampSim with config: dpc4/1C.fullBW.setdueling.json
Trace: traces/DTCHull/dtchullTrace_S100B_T1B.champsimtrace.xz
Start: Mon Jul 20 03:56:46 PM UTC 2026
[VMEM] WARNING: physical memory size is smaller than virtual memory size.

*** ChampSim Multicore Out-of-Order Simulator ***
Warmup Instructions: 200000000
Simulation Instructions: 500000000
Number of CPUs: 1
Page size: 4096

Adaptive Next Line
Sampling size: 199.5 KB
Stats size: 9.05701 KB
Ongoing size: 0.71875 KB
Total size: 209.276 KB
 L1D Berti prefetcher
[Pythia] Set Dueling Filter Enabled
[SetDueling] Static assignment (set % 5)
[SetDueling] Starting tournament immediately
Off-chip DRAM Size: 64 GiB Channels: 1 Width: 64-bit Data Rate: 4807 MT/s
Heartbeat CPU 0 instructions: 10000000 cycles: 3895084 heartbeat IPC: 2.567 cumulative IPC: 2.567 (Simulation time: 00 hr 00 min 39 sec)
[SetDueling] Tournament results:
  NoPref: 46987/53114 = 0.884644
  PC: 2374/53090 = 0.0447165
  PC_Delta: 2450/53058 = 0.0461759
  PC|Delta: 2595/52959 = 0.0490002
  PC&Delta: 2680/52979 = 0.0505861
[SetDueling] Winner: PC
[SetDueling] Phase 1: Final
Heartbeat CPU 0 instructions: 20000004 cycles: 7802472 heartbeat IPC: 2.559 cumulative IPC: 2.563 (Simulation time: 00 hr 01 min 18 sec)
Heartbeat CPU 0 instructions: 30000006 cycles: 11728957 heartbeat IPC: 2.547 cumulative IPC: 2.558 (Simulation time: 00 hr 01 min 58 sec)
Heartbeat CPU 0 instructions: 40000013 cycles: 15700630 heartbeat IPC: 2.518 cumulative IPC: 2.548 (Simulation time: 00 hr 02 min 38 sec)
Heartbeat CPU 0 instructions: 50000019 cycles: 19910872 heartbeat IPC: 2.375 cumulative IPC: 2.511 (Simulation time: 00 hr 03 min 25 sec)
Heartbeat CPU 0 instructions: 60000021 cycles: 24892767 heartbeat IPC: 2.007 cumulative IPC: 2.41 (Simulation time: 00 hr 04 min 18 sec)
Heartbeat CPU 0 instructions: 70000025 cycles: 30240376 heartbeat IPC: 1.87 cumulative IPC: 2.315 (Simulation time: 00 hr 05 min 12 sec)
Heartbeat CPU 0 instructions: 80000029 cycles: 35587935 heartbeat IPC: 1.87 cumulative IPC: 2.248 (Simulation time: 00 hr 06 min 05 sec)
Heartbeat CPU 0 instructions: 90000031 cycles: 40935640 heartbeat IPC: 1.87 cumulative IPC: 2.199 (Simulation time: 00 hr 06 min 58 sec)
Heartbeat CPU 0 instructions: 100000031 cycles: 49156168 heartbeat IPC: 1.216 cumulative IPC: 2.034 (Simulation time: 00 hr 07 min 43 sec)
Heartbeat CPU 0 instructions: 110000032 cycles: 57367467 heartbeat IPC: 1.218 cumulative IPC: 1.917 (Simulation time: 00 hr 08 min 23 sec)
Heartbeat CPU 0 instructions: 120000036 cycles: 60969673 heartbeat IPC: 2.776 cumulative IPC: 1.968 (Simulation time: 00 hr 09 min 00 sec)
Heartbeat CPU 0 instructions: 130000037 cycles: 64599127 heartbeat IPC: 2.755 cumulative IPC: 2.012 (Simulation time: 00 hr 09 min 38 sec)
Heartbeat CPU 0 instructions: 140000040 cycles: 68242613 heartbeat IPC: 2.745 cumulative IPC: 2.052 (Simulation time: 00 hr 10 min 16 sec)
Heartbeat CPU 0 instructions: 150000041 cycles: 71931982 heartbeat IPC: 2.71 cumulative IPC: 2.085 (Simulation time: 00 hr 10 min 54 sec)
Heartbeat CPU 0 instructions: 160000045 cycles: 75702072 heartbeat IPC: 2.652 cumulative IPC: 2.114 (Simulation time: 00 hr 11 min 36 sec)
Heartbeat CPU 0 instructions: 170000050 cycles: 79989184 heartbeat IPC: 2.333 cumulative IPC: 2.125 (Simulation time: 00 hr 12 min 23 sec)
Heartbeat CPU 0 instructions: 180000050 cycles: 85336780 heartbeat IPC: 1.87 cumulative IPC: 2.109 (Simulation time: 00 hr 13 min 16 sec)
Heartbeat CPU 0 instructions: 190000050 cycles: 90684387 heartbeat IPC: 1.87 cumulative IPC: 2.095 (Simulation time: 00 hr 14 min 09 sec)
Warmup finished CPU 0 instructions: 200000001 cycles: 96031944 cumulative IPC: 2.083 (Simulation time: 00 hr 15 min 02 sec)
Warmup complete CPU 0 instructions: 200000001 cycles: 96031944 cumulative IPC: 2.083 (Simulation time: 00 hr 15 min 02 sec)
Heartbeat CPU 0 instructions: 200000050 cycles: 96031980 heartbeat IPC: 1.87 cumulative IPC: 1.4 (Simulation time: 00 hr 15 min 02 sec)
Heartbeat CPU 0 instructions: 210000050 cycles: 105669863 heartbeat IPC: 1.038 cumulative IPC: 1.038 (Simulation time: 00 hr 15 min 55 sec)
Heartbeat CPU 0 instructions: 220000057 cycles: 116029222 heartbeat IPC: 0.9653 cumulative IPC: 1 (Simulation time: 00 hr 16 min 50 sec)
Heartbeat CPU 0 instructions: 230000059 cycles: 123087773 heartbeat IPC: 1.417 cumulative IPC: 1.109 (Simulation time: 00 hr 17 min 43 sec)
Heartbeat CPU 0 instructions: 240000060 cycles: 130395173 heartbeat IPC: 1.368 cumulative IPC: 1.164 (Simulation time: 00 hr 18 min 29 sec)
Heartbeat CPU 0 instructions: 250000067 cycles: 137520492 heartbeat IPC: 1.403 cumulative IPC: 1.205 (Simulation time: 00 hr 19 min 16 sec)
Heartbeat CPU 0 instructions: 260000073 cycles: 144965633 heartbeat IPC: 1.343 cumulative IPC: 1.226 (Simulation time: 00 hr 20 min 03 sec)
Heartbeat CPU 0 instructions: 270000073 cycles: 153546323 heartbeat IPC: 1.165 cumulative IPC: 1.217 (Simulation time: 00 hr 20 min 54 sec)
Heartbeat CPU 0 instructions: 280000073 cycles: 168613266 heartbeat IPC: 0.6637 cumulative IPC: 1.102 (Simulation time: 00 hr 22 min 45 sec)
Heartbeat CPU 0 instructions: 290000076 cycles: 177735061 heartbeat IPC: 1.096 cumulative IPC: 1.102 (Simulation time: 00 hr 23 min 40 sec)
Heartbeat CPU 0 instructions: 300000079 cycles: 187349836 heartbeat IPC: 1.04 cumulative IPC: 1.095 (Simulation time: 00 hr 24 min 37 sec)
Heartbeat CPU 0 instructions: 310000081 cycles: 196325136 heartbeat IPC: 1.114 cumulative IPC: 1.097 (Simulation time: 00 hr 25 min 33 sec)
Heartbeat CPU 0 instructions: 320000081 cycles: 205705357 heartbeat IPC: 1.066 cumulative IPC: 1.094 (Simulation time: 00 hr 26 min 28 sec)
Heartbeat CPU 0 instructions: 330000081 cycles: 216123312 heartbeat IPC: 0.9599 cumulative IPC: 1.083 (Simulation time: 00 hr 27 min 21 sec)
Heartbeat CPU 0 instructions: 340000085 cycles: 223735362 heartbeat IPC: 1.314 cumulative IPC: 1.096 (Simulation time: 00 hr 28 min 17 sec)
Heartbeat CPU 0 instructions: 350000086 cycles: 231010300 heartbeat IPC: 1.375 cumulative IPC: 1.111 (Simulation time: 00 hr 29 min 05 sec)
Heartbeat CPU 0 instructions: 360000086 cycles: 238254065 heartbeat IPC: 1.38 cumulative IPC: 1.125 (Simulation time: 00 hr 29 min 54 sec)
Heartbeat CPU 0 instructions: 370000090 cycles: 245542607 heartbeat IPC: 1.372 cumulative IPC: 1.137 (Simulation time: 00 hr 30 min 40 sec)
Heartbeat CPU 0 instructions: 380000094 cycles: 253109843 heartbeat IPC: 1.321 cumulative IPC: 1.146 (Simulation time: 00 hr 31 min 25 sec)
Heartbeat CPU 0 instructions: 390000100 cycles: 268045483 heartbeat IPC: 0.6695 cumulative IPC: 1.105 (Simulation time: 00 hr 33 min 15 sec)
Heartbeat CPU 0 instructions: 400000100 cycles: 278401716 heartbeat IPC: 0.9656 cumulative IPC: 1.097 (Simulation time: 00 hr 34 min 21 sec)
Heartbeat CPU 0 instructions: 410000105 cycles: 287846028 heartbeat IPC: 1.059 cumulative IPC: 1.095 (Simulation time: 00 hr 35 min 17 sec)
Heartbeat CPU 0 instructions: 420000110 cycles: 296773952 heartbeat IPC: 1.12 cumulative IPC: 1.096 (Simulation time: 00 hr 36 min 12 sec)
Heartbeat CPU 0 instructions: 430000110 cycles: 305869103 heartbeat IPC: 1.099 cumulative IPC: 1.096 (Simulation time: 00 hr 37 min 08 sec)
Heartbeat CPU 0 instructions: 440000110 cycles: 316240426 heartbeat IPC: 0.9642 cumulative IPC: 1.09 (Simulation time: 00 hr 38 min 00 sec)
Heartbeat CPU 0 instructions: 450000117 cycles: 324619496 heartbeat IPC: 1.193 cumulative IPC: 1.094 (Simulation time: 00 hr 38 min 57 sec)
Heartbeat CPU 0 instructions: 460000119 cycles: 331817525 heartbeat IPC: 1.389 cumulative IPC: 1.103 (Simulation time: 00 hr 39 min 45 sec)
Heartbeat CPU 0 instructions: 470000123 cycles: 339055189 heartbeat IPC: 1.382 cumulative IPC: 1.111 (Simulation time: 00 hr 40 min 34 sec)
Heartbeat CPU 0 instructions: 480000124 cycles: 346308402 heartbeat IPC: 1.379 cumulative IPC: 1.119 (Simulation time: 00 hr 41 min 21 sec)
Heartbeat CPU 0 instructions: 490000124 cycles: 353934885 heartbeat IPC: 1.311 cumulative IPC: 1.124 (Simulation time: 00 hr 42 min 06 sec)
Heartbeat CPU 0 instructions: 500000130 cycles: 367043704 heartbeat IPC: 0.7628 cumulative IPC: 1.107 (Simulation time: 00 hr 43 min 41 sec)
Heartbeat CPU 0 instructions: 510000130 cycles: 378397423 heartbeat IPC: 0.8808 cumulative IPC: 1.098 (Simulation time: 00 hr 44 min 58 sec)
Heartbeat CPU 0 instructions: 520000130 cycles: 388134008 heartbeat IPC: 1.027 cumulative IPC: 1.096 (Simulation time: 00 hr 45 min 56 sec)
Heartbeat CPU 0 instructions: 530000131 cycles: 397269669 heartbeat IPC: 1.095 cumulative IPC: 1.095 (Simulation time: 00 hr 46 min 51 sec)
Heartbeat CPU 0 instructions: 540000132 cycles: 406313505 heartbeat IPC: 1.106 cumulative IPC: 1.096 (Simulation time: 00 hr 47 min 49 sec)
Heartbeat CPU 0 instructions: 550000132 cycles: 416627669 heartbeat IPC: 0.9695 cumulative IPC: 1.092 (Simulation time: 00 hr 48 min 43 sec)
Heartbeat CPU 0 instructions: 560000138 cycles: 425748404 heartbeat IPC: 1.096 cumulative IPC: 1.092 (Simulation time: 00 hr 49 min 42 sec)
Heartbeat CPU 0 instructions: 570000139 cycles: 432747185 heartbeat IPC: 1.429 cumulative IPC: 1.099 (Simulation time: 00 hr 50 min 33 sec)
Heartbeat CPU 0 instructions: 580000139 cycles: 440010643 heartbeat IPC: 1.377 cumulative IPC: 1.105 (Simulation time: 00 hr 51 min 23 sec)
Heartbeat CPU 0 instructions: 590000143 cycles: 447249006 heartbeat IPC: 1.382 cumulative IPC: 1.11 (Simulation time: 00 hr 52 min 12 sec)
Heartbeat CPU 0 instructions: 600000143 cycles: 454717101 heartbeat IPC: 1.339 cumulative IPC: 1.115 (Simulation time: 00 hr 52 min 59 sec)
Heartbeat CPU 0 instructions: 610000147 cycles: 466075216 heartbeat IPC: 0.8804 cumulative IPC: 1.108 (Simulation time: 00 hr 54 min 18 sec)
Heartbeat CPU 0 instructions: 620000152 cycles: 478949345 heartbeat IPC: 0.7768 cumulative IPC: 1.097 (Simulation time: 00 hr 55 min 49 sec)
Heartbeat CPU 0 instructions: 630000158 cycles: 488687485 heartbeat IPC: 1.027 cumulative IPC: 1.095 (Simulation time: 00 hr 56 min 47 sec)
Heartbeat CPU 0 instructions: 640000161 cycles: 497902883 heartbeat IPC: 1.085 cumulative IPC: 1.095 (Simulation time: 00 hr 57 min 43 sec)
Heartbeat CPU 0 instructions: 650000168 cycles: 506899883 heartbeat IPC: 1.111 cumulative IPC: 1.095 (Simulation time: 00 hr 58 min 39 sec)
Heartbeat CPU 0 instructions: 660000168 cycles: 516895209 heartbeat IPC: 1 cumulative IPC: 1.093 (Simulation time: 00 hr 59 min 35 sec)
Heartbeat CPU 0 instructions: 670000171 cycles: 526829666 heartbeat IPC: 1.007 cumulative IPC: 1.091 (Simulation time: 01 hr 00 min 32 sec)
Heartbeat CPU 0 instructions: 680000174 cycles: 533745684 heartbeat IPC: 1.446 cumulative IPC: 1.097 (Simulation time: 01 hr 01 min 26 sec)
Heartbeat CPU 0 instructions: 690000176 cycles: 541013530 heartbeat IPC: 1.376 cumulative IPC: 1.101 (Simulation time: 01 hr 02 min 16 sec)
Simulation finished CPU 0 instructions: 500000001 cycles: 452163564 cumulative IPC: 1.106 (Simulation time: 01 hr 03 min 04 sec)
Simulation complete CPU 0 instructions: 500000001 cycles: 452163564 cumulative IPC: 1.106 (Simulation time: 01 hr 03 min 04 sec)

ChampSim completed all CPUs

=== Simulation ===
CPU 0 runs traces/DTCHull/dtchullTrace_S100B_T1B.champsimtrace.xz

Region of Interest Statistics

CPU 0 cumulative IPC: 1.106 instructions: 500000001 cycles: 452163564
CPU 0 Branch Prediction Accuracy: 86.82% MPKI: 12.55 Average ROB Occupancy at Mispredict: 54.91
Branch type MPKI
BRANCH_DIRECT_JUMP: 0
BRANCH_INDIRECT: 0
BRANCH_CONDITIONAL: 12.55
BRANCH_DIRECT_CALL: 0
BRANCH_INDIRECT_CALL: 4e-05
BRANCH_RETURN: 0
IDLE Cycles
Fetch Idle Cycles 394389191
Fetch Blocked Cycles 218931586
IFetch Failed Events 0
Fetch Buffer Not Empty 84854250
Decode Idle Cycles 294455959
Dispatch Idle Cycles 298150596
Execute Idle Cycles 228312178
Execute None Cycles 218177065
Execute Head Not Ready Cycles 2228395
Execute Head Not Completed Cycles 200391624
Execute Pending Cycles 211007901
Execute Load Blocked Cycles 200391624
Scheduler Idle Cycles 306742425
Scheduler None Cycles 142912239
ROB Idle Cycles 293604847
LQ Full Events 12624
SQ Full Events 2611448

cpu0->LLC TOTAL        ACCESS:   22222948 HIT:    2499902 MISS:   19723046 MISS_MERGE:    2589918
cpu0->LLC LOAD         ACCESS:     387436 HIT:      18927 MISS:     368509 MISS_MERGE:       2351
cpu0->LLC RFO          ACCESS:    1044711 HIT:       5125 MISS:    1039586 MISS_MERGE:          0
cpu0->LLC PREFETCH     ACCESS:   16385745 HIT:     916053 MISS:   15469692 MISS_MERGE:    2587567
cpu0->LLC WRITE        ACCESS:    4374594 HIT:    1559762 MISS:    2814832 MISS_MERGE:          0
cpu0->LLC TRANSLATION  ACCESS:      30462 HIT:         35 MISS:      30427 MISS_MERGE:          0
cpu0->LLC PREFETCH REQUESTED:    3478348 ISSUED:    3478348 USEFUL:     688927 USELESS:    2079397
cpu0->LLC AVERAGE MISS LATENCY: 119.3 cycles
cpu0->cpu0_DTLB TOTAL        ACCESS:  269933568 HIT:  268836330 MISS:    1097238 MISS_MERGE:     694724
cpu0->cpu0_DTLB LOAD         ACCESS:  269933568 HIT:  268836330 MISS:    1097238 MISS_MERGE:     694724
cpu0->cpu0_DTLB RFO          ACCESS:          0 HIT:          0 MISS:          0 MISS_MERGE:          0
cpu0->cpu0_DTLB PREFETCH     ACCESS:          0 HIT:          0 MISS:          0 MISS_MERGE:          0
cpu0->cpu0_DTLB WRITE        ACCESS:          0 HIT:          0 MISS:          0 MISS_MERGE:          0
cpu0->cpu0_DTLB TRANSLATION  ACCESS:          0 HIT:          0 MISS:          0 MISS_MERGE:          0
cpu0->cpu0_DTLB PREFETCH REQUESTED:          0 ISSUED:          0 USEFUL:          0 USELESS:          0
cpu0->cpu0_DTLB AVERAGE MISS LATENCY: 42.45 cycles
cpu0->cpu0_ITLB TOTAL        ACCESS:   59982407 HIT:   59982407 MISS:          0 MISS_MERGE:          0
cpu0->cpu0_ITLB LOAD         ACCESS:   59982407 HIT:   59982407 MISS:          0 MISS_MERGE:          0
cpu0->cpu0_ITLB RFO          ACCESS:          0 HIT:          0 MISS:          0 MISS_MERGE:          0
cpu0->cpu0_ITLB PREFETCH     ACCESS:          0 HIT:          0 MISS:          0 MISS_MERGE:          0
cpu0->cpu0_ITLB WRITE        ACCESS:          0 HIT:          0 MISS:          0 MISS_MERGE:          0
cpu0->cpu0_ITLB TRANSLATION  ACCESS:          0 HIT:          0 MISS:          0 MISS_MERGE:          0
cpu0->cpu0_ITLB PREFETCH REQUESTED:          0 ISSUED:          0 USEFUL:          0 USELESS:          0
cpu0->cpu0_ITLB AVERAGE MISS LATENCY: - cycles
cpu0->cpu0_L1D TOTAL        ACCESS:  270392358 HIT:  184761588 MISS:   85630770 MISS_MERGE:   69431463
cpu0->cpu0_L1D LOAD         ACCESS:  150323693 HIT:  145137655 MISS:    5186038 MISS_MERGE:    3599308
cpu0->cpu0_L1D RFO          ACCESS:          0 HIT:          0 MISS:          0 MISS_MERGE:          0
cpu0->cpu0_L1D PREFETCH     ACCESS:   14170365 HIT:     588523 MISS:   13581842 MISS_MERGE:      84325
cpu0->cpu0_L1D WRITE        ACCESS:  105439510 HIT:   38634903 MISS:   66804607 MISS_MERGE:   65747499
cpu0->cpu0_L1D TRANSLATION  ACCESS:     458790 HIT:     400507 MISS:      58283 MISS_MERGE:        331
cpu0->cpu0_L1D PREFETCH REQUESTED:   14454419 ISSUED:   14170358 USEFUL:   13259237 USELESS:     238257
cpu0->cpu0_L1D AVERAGE MISS LATENCY: 219 cycles
cpu0->cpu0_L1I TOTAL        ACCESS:   59982407 HIT:   59982407 MISS:          0 MISS_MERGE:          0
cpu0->cpu0_L1I LOAD         ACCESS:   59982407 HIT:   59982407 MISS:          0 MISS_MERGE:          0
cpu0->cpu0_L1I RFO          ACCESS:          0 HIT:          0 MISS:          0 MISS_MERGE:          0
cpu0->cpu0_L1I PREFETCH     ACCESS:          0 HIT:          0 MISS:          0 MISS_MERGE:          0
cpu0->cpu0_L1I WRITE        ACCESS:          0 HIT:          0 MISS:          0 MISS_MERGE:          0
cpu0->cpu0_L1I TRANSLATION  ACCESS:          0 HIT:          0 MISS:          0 MISS_MERGE:          0
cpu0->cpu0_L1I PREFETCH REQUESTED:          0 ISSUED:          0 USEFUL:          0 USELESS:          0
cpu0->cpu0_L1I AVERAGE MISS LATENCY: - cycles
cpu0->cpu0_L2C TOTAL        ACCESS:   77016177 HIT:   54792965 MISS:   22223212 MISS_MERGE:    7853201
cpu0->cpu0_L2C LOAD         ACCESS:    1586730 HIT:    1136925 MISS:     449805 MISS_MERGE:      62369
cpu0->cpu0_L2C RFO          ACCESS:    1057108 HIT:      12397 MISS:    1044711 MISS_MERGE:          0
cpu0->cpu0_L2C PREFETCH     ACCESS:   69062174 HIT:   48363945 MISS:   20698229 MISS_MERGE:    7790832
cpu0->cpu0_L2C WRITE        ACCESS:    5252213 HIT:    5252208 MISS:          5 MISS_MERGE:          0
cpu0->cpu0_L2C TRANSLATION  ACCESS:      57952 HIT:      27490 MISS:      30462 MISS_MERGE:          0
cpu0->cpu0_L2C PREFETCH REQUESTED:   61093870 ISSUED:   55564664 USEFUL:   11400063 USELESS:     564132
cpu0->cpu0_L2C AVERAGE MISS LATENCY: 337.7 cycles
cpu0->cpu0_STLB TOTAL        ACCESS:     402514 HIT:     173474 MISS:     229040 MISS_MERGE:          0
cpu0->cpu0_STLB LOAD         ACCESS:     402514 HIT:     173474 MISS:     229040 MISS_MERGE:          0
cpu0->cpu0_STLB RFO          ACCESS:          0 HIT:          0 MISS:          0 MISS_MERGE:          0
cpu0->cpu0_STLB PREFETCH     ACCESS:          0 HIT:          0 MISS:          0 MISS_MERGE:          0
cpu0->cpu0_STLB WRITE        ACCESS:          0 HIT:          0 MISS:          0 MISS_MERGE:          0
cpu0->cpu0_STLB TRANSLATION  ACCESS:          0 HIT:          0 MISS:          0 MISS_MERGE:          0
cpu0->cpu0_STLB PREFETCH REQUESTED:          0 ISSUED:          0 USEFUL:          0 USELESS:          0
cpu0->cpu0_STLB AVERAGE MISS LATENCY: 64.78 cycles

DRAM Statistics

Channel 0 RQ ROW_BUFFER_HIT:     451880
  ROW_BUFFER_MISS:   13866115
  AVG DBUS CONGESTED CYCLE: 11.16
Channel 0 WQ ROW_BUFFER_HIT:     451697
  ROW_BUFFER_MISS:    3855101
  FULL:     182762
Channel 0 REFRESHES ISSUED:      37678
[SetDueling] === Final Statistics ===
  Winner: PC
  NoPref: miss_ratio=0.884644 (acc=53114, miss=46987)
  PC: miss_ratio=0.0447165 (acc=53090, miss=2374)
  PC_Delta: miss_ratio=0.0461759 (acc=53058, miss=2450)
  PC|Delta: miss_ratio=0.0490002 (acc=52959, miss=2595)
  PC&Delta: miss_ratio=0.0505861 (acc=52979, miss=2680)
End: Mon Jul 20 04:59:50 PM UTC 2026
