Running ChampSim with config: dpc4/1C.fullBW.typical.json
Trace: traces/DTCHull/dtchullTrace_S100B_T1B.champsimtrace.xz
Start: Fri Jul 17 03:35:58 PM UTC 2026
[VMEM] WARNING: physical memory size is smaller than virtual memory size.

*** ChampSim Multicore Out-of-Order Simulator ***
Warmup Instructions: 200000000
Simulation Instructions: 500000000
Number of CPUs: 1
Page size: 4096

Initialize SIGNATURE TABLE
ST_SET: 1
ST_WAY: 256
ST_TAG_BIT: 16

Initialize PATTERN TABLE
PT_SET: 512
PT_WAY: 4
SIG_DELTA_BIT: 7
C_SIG_BIT: 4
C_DELTA_BIT: 4

Initialize PREFETCH FILTER
FILTER_SET: 1024
Off-chip DRAM Size: 64 GiB Channels: 1 Width: 64-bit Data Rate: 4807 MT/s
Heartbeat CPU 0 instructions: 10000006 cycles: 5121688 heartbeat IPC: 1.952 cumulative IPC: 1.952 (Simulation time: 00 hr 00 min 43 sec)
Heartbeat CPU 0 instructions: 20000009 cycles: 10270532 heartbeat IPC: 1.942 cumulative IPC: 1.947 (Simulation time: 00 hr 01 min 26 sec)
Heartbeat CPU 0 instructions: 30000009 cycles: 15435064 heartbeat IPC: 1.936 cumulative IPC: 1.944 (Simulation time: 00 hr 02 min 09 sec)
Heartbeat CPU 0 instructions: 40000013 cycles: 20707869 heartbeat IPC: 1.897 cumulative IPC: 1.932 (Simulation time: 00 hr 02 min 54 sec)
Heartbeat CPU 0 instructions: 50000013 cycles: 26186328 heartbeat IPC: 1.825 cumulative IPC: 1.909 (Simulation time: 00 hr 03 min 42 sec)
Heartbeat CPU 0 instructions: 60000018 cycles: 33087472 heartbeat IPC: 1.449 cumulative IPC: 1.813 (Simulation time: 00 hr 04 min 40 sec)
Heartbeat CPU 0 instructions: 70000019 cycles: 40685987 heartbeat IPC: 1.316 cumulative IPC: 1.72 (Simulation time: 00 hr 05 min 41 sec)
Heartbeat CPU 0 instructions: 80000022 cycles: 47620385 heartbeat IPC: 1.442 cumulative IPC: 1.68 (Simulation time: 00 hr 06 min 40 sec)
Heartbeat CPU 0 instructions: 90000029 cycles: 55265637 heartbeat IPC: 1.308 cumulative IPC: 1.628 (Simulation time: 00 hr 07 min 43 sec)
Heartbeat CPU 0 instructions: 100000029 cycles: 64088842 heartbeat IPC: 1.133 cumulative IPC: 1.56 (Simulation time: 00 hr 08 min 28 sec)
Heartbeat CPU 0 instructions: 110000030 cycles: 72513577 heartbeat IPC: 1.187 cumulative IPC: 1.517 (Simulation time: 00 hr 09 min 07 sec)
Heartbeat CPU 0 instructions: 120000036 cycles: 77202550 heartbeat IPC: 2.133 cumulative IPC: 1.554 (Simulation time: 00 hr 09 min 48 sec)
Heartbeat CPU 0 instructions: 130000041 cycles: 81933256 heartbeat IPC: 2.114 cumulative IPC: 1.587 (Simulation time: 00 hr 10 min 29 sec)
Heartbeat CPU 0 instructions: 140000042 cycles: 86687757 heartbeat IPC: 2.103 cumulative IPC: 1.615 (Simulation time: 00 hr 11 min 10 sec)
Heartbeat CPU 0 instructions: 150000044 cycles: 91510655 heartbeat IPC: 2.073 cumulative IPC: 1.639 (Simulation time: 00 hr 11 min 51 sec)
Heartbeat CPU 0 instructions: 160000046 cycles: 96027695 heartbeat IPC: 2.214 cumulative IPC: 1.666 (Simulation time: 00 hr 12 min 33 sec)
Heartbeat CPU 0 instructions: 170000046 cycles: 102241296 heartbeat IPC: 1.609 cumulative IPC: 1.663 (Simulation time: 00 hr 13 min 26 sec)
Heartbeat CPU 0 instructions: 180000050 cycles: 109351719 heartbeat IPC: 1.406 cumulative IPC: 1.646 (Simulation time: 00 hr 14 min 26 sec)
Heartbeat CPU 0 instructions: 190000050 cycles: 116910356 heartbeat IPC: 1.323 cumulative IPC: 1.625 (Simulation time: 00 hr 15 min 28 sec)
Warmup finished CPU 0 instructions: 200000004 cycles: 124655784 cumulative IPC: 1.604 (Simulation time: 00 hr 16 min 32 sec)
Warmup complete CPU 0 instructions: 200000004 cycles: 124655784 cumulative IPC: 1.604 (Simulation time: 00 hr 16 min 32 sec)
Heartbeat CPU 0 instructions: 200000052 cycles: 124655790 heartbeat IPC: 1.291 cumulative IPC: 8 (Simulation time: 00 hr 16 min 32 sec)
Heartbeat CPU 0 instructions: 210000052 cycles: 134718940 heartbeat IPC: 0.9937 cumulative IPC: 0.9937 (Simulation time: 00 hr 17 min 23 sec)
Heartbeat CPU 0 instructions: 220000057 cycles: 145144135 heartbeat IPC: 0.9592 cumulative IPC: 0.9762 (Simulation time: 00 hr 18 min 16 sec)
Heartbeat CPU 0 instructions: 230000059 cycles: 152600274 heartbeat IPC: 1.341 cumulative IPC: 1.074 (Simulation time: 00 hr 19 min 09 sec)
Heartbeat CPU 0 instructions: 240000059 cycles: 160238049 heartbeat IPC: 1.309 cumulative IPC: 1.124 (Simulation time: 00 hr 19 min 54 sec)
Heartbeat CPU 0 instructions: 250000059 cycles: 167672940 heartbeat IPC: 1.345 cumulative IPC: 1.162 (Simulation time: 00 hr 20 min 39 sec)
Heartbeat CPU 0 instructions: 260000064 cycles: 175485271 heartbeat IPC: 1.28 cumulative IPC: 1.18 (Simulation time: 00 hr 21 min 21 sec)
Heartbeat CPU 0 instructions: 270000071 cycles: 184351947 heartbeat IPC: 1.128 cumulative IPC: 1.173 (Simulation time: 00 hr 22 min 09 sec)
Heartbeat CPU 0 instructions: 280000071 cycles: 202123077 heartbeat IPC: 0.5627 cumulative IPC: 1.033 (Simulation time: 00 hr 24 min 02 sec)
Heartbeat CPU 0 instructions: 290000078 cycles: 211876133 heartbeat IPC: 1.025 cumulative IPC: 1.032 (Simulation time: 00 hr 24 min 54 sec)
Heartbeat CPU 0 instructions: 300000079 cycles: 221647635 heartbeat IPC: 1.023 cumulative IPC: 1.031 (Simulation time: 00 hr 25 min 47 sec)
Heartbeat CPU 0 instructions: 310000081 cycles: 231303136 heartbeat IPC: 1.036 cumulative IPC: 1.031 (Simulation time: 00 hr 26 min 40 sec)
Heartbeat CPU 0 instructions: 320000081 cycles: 241221396 heartbeat IPC: 1.008 cumulative IPC: 1.029 (Simulation time: 00 hr 27 min 34 sec)
Heartbeat CPU 0 instructions: 330000081 cycles: 251623230 heartbeat IPC: 0.9614 cumulative IPC: 1.024 (Simulation time: 00 hr 28 min 24 sec)
Heartbeat CPU 0 instructions: 340000085 cycles: 259691954 heartbeat IPC: 1.239 cumulative IPC: 1.037 (Simulation time: 00 hr 29 min 19 sec)
Heartbeat CPU 0 instructions: 350000086 cycles: 267305305 heartbeat IPC: 1.313 cumulative IPC: 1.052 (Simulation time: 00 hr 30 min 03 sec)
Heartbeat CPU 0 instructions: 360000086 cycles: 274834262 heartbeat IPC: 1.328 cumulative IPC: 1.065 (Simulation time: 00 hr 30 min 48 sec)
Heartbeat CPU 0 instructions: 370000090 cycles: 282532731 heartbeat IPC: 1.299 cumulative IPC: 1.077 (Simulation time: 00 hr 31 min 31 sec)
Heartbeat CPU 0 instructions: 380000094 cycles: 290523601 heartbeat IPC: 1.251 cumulative IPC: 1.085 (Simulation time: 00 hr 32 min 12 sec)
Heartbeat CPU 0 instructions: 390000095 cycles: 307954421 heartbeat IPC: 0.5737 cumulative IPC: 1.037 (Simulation time: 00 hr 34 min 01 sec)
Heartbeat CPU 0 instructions: 400000100 cycles: 318613609 heartbeat IPC: 0.9382 cumulative IPC: 1.031 (Simulation time: 00 hr 35 min 02 sec)
Heartbeat CPU 0 instructions: 410000107 cycles: 328410193 heartbeat IPC: 1.021 cumulative IPC: 1.031 (Simulation time: 00 hr 35 min 55 sec)
Heartbeat CPU 0 instructions: 420000110 cycles: 338081203 heartbeat IPC: 1.034 cumulative IPC: 1.031 (Simulation time: 00 hr 36 min 49 sec)
Heartbeat CPU 0 instructions: 430000110 cycles: 347889022 heartbeat IPC: 1.02 cumulative IPC: 1.03 (Simulation time: 00 hr 37 min 44 sec)
Heartbeat CPU 0 instructions: 440000110 cycles: 358259379 heartbeat IPC: 0.9643 cumulative IPC: 1.027 (Simulation time: 00 hr 38 min 33 sec)
Heartbeat CPU 0 instructions: 450000117 cycles: 366987793 heartbeat IPC: 1.146 cumulative IPC: 1.032 (Simulation time: 00 hr 39 min 27 sec)
Heartbeat CPU 0 instructions: 460000120 cycles: 374511642 heartbeat IPC: 1.329 cumulative IPC: 1.041 (Simulation time: 00 hr 40 min 11 sec)
Heartbeat CPU 0 instructions: 470000123 cycles: 382095123 heartbeat IPC: 1.319 cumulative IPC: 1.049 (Simulation time: 00 hr 40 min 56 sec)
Heartbeat CPU 0 instructions: 480000124 cycles: 389697496 heartbeat IPC: 1.315 cumulative IPC: 1.056 (Simulation time: 00 hr 41 min 39 sec)
Heartbeat CPU 0 instructions: 490000124 cycles: 397684329 heartbeat IPC: 1.252 cumulative IPC: 1.062 (Simulation time: 00 hr 42 min 22 sec)
Heartbeat CPU 0 instructions: 500000125 cycles: 412955815 heartbeat IPC: 0.6548 cumulative IPC: 1.041 (Simulation time: 00 hr 43 min 56 sec)
Heartbeat CPU 0 instructions: 510000130 cycles: 425383713 heartbeat IPC: 0.8046 cumulative IPC: 1.031 (Simulation time: 00 hr 45 min 10 sec)
Heartbeat CPU 0 instructions: 520000131 cycles: 435187341 heartbeat IPC: 1.02 cumulative IPC: 1.03 (Simulation time: 00 hr 46 min 02 sec)
Heartbeat CPU 0 instructions: 530000131 cycles: 444860110 heartbeat IPC: 1.034 cumulative IPC: 1.031 (Simulation time: 00 hr 46 min 55 sec)
Heartbeat CPU 0 instructions: 540000138 cycles: 454430332 heartbeat IPC: 1.045 cumulative IPC: 1.031 (Simulation time: 00 hr 47 min 48 sec)
Heartbeat CPU 0 instructions: 550000138 cycles: 464870364 heartbeat IPC: 0.9579 cumulative IPC: 1.029 (Simulation time: 00 hr 48 min 39 sec)
Heartbeat CPU 0 instructions: 560000138 cycles: 474295894 heartbeat IPC: 1.061 cumulative IPC: 1.03 (Simulation time: 00 hr 49 min 36 sec)
Heartbeat CPU 0 instructions: 570000139 cycles: 481647930 heartbeat IPC: 1.36 cumulative IPC: 1.036 (Simulation time: 00 hr 50 min 21 sec)
Heartbeat CPU 0 instructions: 580000140 cycles: 489234086 heartbeat IPC: 1.318 cumulative IPC: 1.042 (Simulation time: 00 hr 51 min 07 sec)
Heartbeat CPU 0 instructions: 590000143 cycles: 496770357 heartbeat IPC: 1.327 cumulative IPC: 1.048 (Simulation time: 00 hr 51 min 50 sec)
Heartbeat CPU 0 instructions: 600000144 cycles: 504699787 heartbeat IPC: 1.261 cumulative IPC: 1.053 (Simulation time: 00 hr 52 min 31 sec)
Heartbeat CPU 0 instructions: 610000151 cycles: 517846922 heartbeat IPC: 0.7606 cumulative IPC: 1.043 (Simulation time: 00 hr 53 min 49 sec)
Heartbeat CPU 0 instructions: 620000157 cycles: 532011525 heartbeat IPC: 0.706 cumulative IPC: 1.031 (Simulation time: 00 hr 55 min 17 sec)
Heartbeat CPU 0 instructions: 630000159 cycles: 541809993 heartbeat IPC: 1.021 cumulative IPC: 1.031 (Simulation time: 00 hr 56 min 09 sec)
Heartbeat CPU 0 instructions: 640000161 cycles: 551530995 heartbeat IPC: 1.029 cumulative IPC: 1.031 (Simulation time: 00 hr 57 min 02 sec)
Heartbeat CPU 0 instructions: 650000166 cycles: 561143033 heartbeat IPC: 1.04 cumulative IPC: 1.031 (Simulation time: 00 hr 57 min 56 sec)
Heartbeat CPU 0 instructions: 660000166 cycles: 571381850 heartbeat IPC: 0.9767 cumulative IPC: 1.03 (Simulation time: 00 hr 58 min 48 sec)
Heartbeat CPU 0 instructions: 670000166 cycles: 581576571 heartbeat IPC: 0.9809 cumulative IPC: 1.029 (Simulation time: 00 hr 59 min 43 sec)
Heartbeat CPU 0 instructions: 680000166 cycles: 588739030 heartbeat IPC: 1.396 cumulative IPC: 1.034 (Simulation time: 01 hr 00 min 31 sec)
Heartbeat CPU 0 instructions: 690000167 cycles: 596332258 heartbeat IPC: 1.317 cumulative IPC: 1.039 (Simulation time: 01 hr 01 min 15 sec)
Simulation finished CPU 0 instructions: 500000000 cycles: 479173792 cumulative IPC: 1.043 (Simulation time: 01 hr 02 min 00 sec)
Simulation complete CPU 0 instructions: 500000000 cycles: 479173792 cumulative IPC: 1.043 (Simulation time: 01 hr 02 min 00 sec)

ChampSim completed all CPUs

=== Simulation ===
CPU 0 runs traces/DTCHull/dtchullTrace_S100B_T1B.champsimtrace.xz

Region of Interest Statistics

CPU 0 cumulative IPC: 1.043 instructions: 500000000 cycles: 479173792
CPU 0 Branch Prediction Accuracy: 86.82% MPKI: 12.55 Average ROB Occupancy at Mispredict: 56.61
Branch type MPKI
BRANCH_DIRECT_JUMP: 0
BRANCH_INDIRECT: 0
BRANCH_CONDITIONAL: 12.55
BRANCH_DIRECT_CALL: 0
BRANCH_INDIRECT_CALL: 4e-05
BRANCH_RETURN: 0
IDLE Cycles
Fetch Idle Cycles 420948930
Fetch Blocked Cycles 232524136
IFetch Failed Events 0
Fetch Buffer Not Empty 84264210
Decode Idle Cycles 321669684
Dispatch Idle Cycles 325642379
Execute Idle Cycles 250749652
Execute None Cycles 241650285
Execute Head Not Ready Cycles 1919305
Execute Head Not Completed Cycles 222955420
Execute Pending Cycles 235291517
Execute Load Blocked Cycles 222955420
Scheduler Idle Cycles 333857975
Scheduler None Cycles 148082615
ROB Idle Cycles 321375064
LQ Full Events 22234
SQ Full Events 2545030

cpu0->LLC TOTAL        ACCESS:  108949040 HIT:   62033815 MISS:   46915225 MISS_MERGE:   30645263
cpu0->LLC LOAD         ACCESS:    1479067 HIT:    1056753 MISS:     422314 MISS_MERGE:     185530
cpu0->LLC RFO          ACCESS:    1047063 HIT:       4248 MISS:    1042815 MISS_MERGE:          0
cpu0->LLC PREFETCH     ACCESS:  102025245 HIT:   58588057 MISS:   43437188 MISS_MERGE:   30459733
cpu0->LLC WRITE        ACCESS:    4367299 HIT:    2384740 MISS:    1982559 MISS_MERGE:          0
cpu0->LLC TRANSLATION  ACCESS:      30366 HIT:         17 MISS:      30349 MISS_MERGE:          0
cpu0->LLC PREFETCH REQUESTED:          0 ISSUED:          0 USEFUL:          0 USELESS:          0
cpu0->LLC AVERAGE MISS LATENCY: 146.1 cycles
cpu0->cpu0_DTLB TOTAL        ACCESS:  322025792 HIT:  321018508 MISS:    1007284 MISS_MERGE:     614460
cpu0->cpu0_DTLB LOAD         ACCESS:  322025792 HIT:  321018508 MISS:    1007284 MISS_MERGE:     614460
cpu0->cpu0_DTLB RFO          ACCESS:          0 HIT:          0 MISS:          0 MISS_MERGE:          0
cpu0->cpu0_DTLB PREFETCH     ACCESS:          0 HIT:          0 MISS:          0 MISS_MERGE:          0
cpu0->cpu0_DTLB WRITE        ACCESS:          0 HIT:          0 MISS:          0 MISS_MERGE:          0
cpu0->cpu0_DTLB TRANSLATION  ACCESS:          0 HIT:          0 MISS:          0 MISS_MERGE:          0
cpu0->cpu0_DTLB PREFETCH REQUESTED:          0 ISSUED:          0 USEFUL:          0 USELESS:          0
cpu0->cpu0_DTLB AVERAGE MISS LATENCY: 42.22 cycles
cpu0->cpu0_ITLB TOTAL        ACCESS:   60404495 HIT:   60404495 MISS:          0 MISS_MERGE:          0
cpu0->cpu0_ITLB LOAD         ACCESS:   60404495 HIT:   60404495 MISS:          0 MISS_MERGE:          0
cpu0->cpu0_ITLB RFO          ACCESS:          0 HIT:          0 MISS:          0 MISS_MERGE:          0
cpu0->cpu0_ITLB PREFETCH     ACCESS:          0 HIT:          0 MISS:          0 MISS_MERGE:          0
cpu0->cpu0_ITLB WRITE        ACCESS:          0 HIT:          0 MISS:          0 MISS_MERGE:          0
cpu0->cpu0_ITLB TRANSLATION  ACCESS:          0 HIT:          0 MISS:          0 MISS_MERGE:          0
cpu0->cpu0_ITLB PREFETCH REQUESTED:          0 ISSUED:          0 USEFUL:          0 USELESS:          0
cpu0->cpu0_ITLB AVERAGE MISS LATENCY: - cycles
cpu0->cpu0_L1D TOTAL        ACCESS:  322483769 HIT:  223097765 MISS:   99386004 MISS_MERGE:   83145221
cpu0->cpu0_L1D LOAD         ACCESS:  150235936 HIT:  136338692 MISS:   13897244 MISS_MERGE:    9697430
cpu0->cpu0_L1D RFO          ACCESS:          0 HIT:          0 MISS:          0 MISS_MERGE:          0
cpu0->cpu0_L1D PREFETCH     ACCESS:   66350343 HIT:   47881934 MISS:   18468409 MISS_MERGE:    7542350
cpu0->cpu0_L1D WRITE        ACCESS:  105439512 HIT:   38477289 MISS:   66962223 MISS_MERGE:   65905113
cpu0->cpu0_L1D TRANSLATION  ACCESS:     457978 HIT:     399850 MISS:      58128 MISS_MERGE:        328
cpu0->cpu0_L1D PREFETCH REQUESTED:  151351847 ISSUED:   66350344 USEFUL:   10648832 USELESS:     277203
cpu0->cpu0_L1D AVERAGE MISS LATENCY: 135.5 cycles
cpu0->cpu0_L1I TOTAL        ACCESS:   60404495 HIT:   60404495 MISS:          0 MISS_MERGE:          0
cpu0->cpu0_L1I LOAD         ACCESS:   60404495 HIT:   60404495 MISS:          0 MISS_MERGE:          0
cpu0->cpu0_L1I RFO          ACCESS:          0 HIT:          0 MISS:          0 MISS_MERGE:          0
cpu0->cpu0_L1I PREFETCH     ACCESS:          0 HIT:          0 MISS:          0 MISS_MERGE:          0
cpu0->cpu0_L1I WRITE        ACCESS:          0 HIT:          0 MISS:          0 MISS_MERGE:          0
cpu0->cpu0_L1I TRANSLATION  ACCESS:          0 HIT:          0 MISS:          0 MISS_MERGE:          0
cpu0->cpu0_L1I PREFETCH REQUESTED:          0 ISSUED:          0 USEFUL:          0 USELESS:          0
cpu0->cpu0_L1I AVERAGE MISS LATENCY: - cycles
cpu0->cpu0_L2C TOTAL        ACCESS:  129765983 HIT:   23216642 MISS:  106549341 MISS_MERGE:    1967592
cpu0->cpu0_L2C LOAD         ACCESS:    4199814 HIT:    2163270 MISS:    2036544 MISS_MERGE:     557477
cpu0->cpu0_L2C RFO          ACCESS:    1057110 HIT:      10047 MISS:    1047063 MISS_MERGE:          0
cpu0->cpu0_L2C PREFETCH     ACCESS:  119196718 HIT:   15761358 MISS:  103435360 MISS_MERGE:    1410115
cpu0->cpu0_L2C WRITE        ACCESS:    5254541 HIT:    5254533 MISS:          8 MISS_MERGE:          0
cpu0->cpu0_L2C TRANSLATION  ACCESS:      57800 HIT:      27434 MISS:      30366 MISS_MERGE:          0
cpu0->cpu0_L2C PREFETCH REQUESTED:  219310949 ISSUED:  108270659 USEFUL:    7690319 USELESS:     548343
cpu0->cpu0_L2C AVERAGE MISS LATENCY: 206.9 cycles
cpu0->cpu0_STLB TOTAL        ACCESS:     392824 HIT:     164175 MISS:     228649 MISS_MERGE:          0
cpu0->cpu0_STLB LOAD         ACCESS:     392824 HIT:     164175 MISS:     228649 MISS_MERGE:          0
cpu0->cpu0_STLB RFO          ACCESS:          0 HIT:          0 MISS:          0 MISS_MERGE:          0
cpu0->cpu0_STLB PREFETCH     ACCESS:          0 HIT:          0 MISS:          0 MISS_MERGE:          0
cpu0->cpu0_STLB WRITE        ACCESS:          0 HIT:          0 MISS:          0 MISS_MERGE:          0
cpu0->cpu0_STLB TRANSLATION  ACCESS:          0 HIT:          0 MISS:          0 MISS_MERGE:          0
cpu0->cpu0_STLB PREFETCH REQUESTED:          0 ISSUED:          0 USEFUL:          0 USELESS:          0
cpu0->cpu0_STLB AVERAGE MISS LATENCY: 62.92 cycles

DRAM Statistics

Channel 0 RQ ROW_BUFFER_HIT:     354864
  ROW_BUFFER_MISS:   13932208
  AVG DBUS CONGESTED CYCLE: 11.01
Channel 0 WQ ROW_BUFFER_HIT:     465464
  ROW_BUFFER_MISS:    3856794
  FULL:     143335
Channel 0 REFRESHES ISSUED:      39928
End: Fri Jul 17 04:37:59 PM UTC 2026
