Running ChampSim with config: dpc4/1C.fullBW.typical.json
Trace: traces/throttle/throttleTrace_S500B_T1B.champsimtrace.xz
Start: Thu Jul  2 10:53:28 AM UTC 2026
[VMEM] WARNING: physical memory size is smaller than virtual memory size.

*** ChampSim Multicore Out-of-Order Simulator ***
Warmup Instructions: 200000000
Simulation Instructions: 500000000
Number of CPUs: 1
Page size: 4096

Initialize SIGNATURE TABLE
ST_SET: 1
ST_WAY: 256
ST_TAG_BIT: 16

Initialize PATTERN TABLE
PT_SET: 512
PT_WAY: 4
SIG_DELTA_BIT: 7
C_SIG_BIT: 4
C_DELTA_BIT: 4

Initialize PREFETCH FILTER
FILTER_SET: 1024
Off-chip DRAM Size: 64 GiB Channels: 1 Width: 64-bit Data Rate: 4807 MT/s
Heartbeat CPU 0 instructions: 10000006 cycles: 8455494 heartbeat IPC: 1.183 cumulative IPC: 1.183 (Simulation time: 00 hr 00 min 51 sec)
Heartbeat CPU 0 instructions: 20000006 cycles: 15948887 heartbeat IPC: 1.335 cumulative IPC: 1.254 (Simulation time: 00 hr 01 min 41 sec)
Heartbeat CPU 0 instructions: 30000009 cycles: 22482968 heartbeat IPC: 1.53 cumulative IPC: 1.334 (Simulation time: 00 hr 02 min 25 sec)
Heartbeat CPU 0 instructions: 40000009 cycles: 28529583 heartbeat IPC: 1.654 cumulative IPC: 1.402 (Simulation time: 00 hr 03 min 07 sec)
Heartbeat CPU 0 instructions: 50000013 cycles: 34317937 heartbeat IPC: 1.728 cumulative IPC: 1.457 (Simulation time: 00 hr 03 min 49 sec)
Heartbeat CPU 0 instructions: 60000015 cycles: 40407377 heartbeat IPC: 1.642 cumulative IPC: 1.485 (Simulation time: 00 hr 04 min 31 sec)
Heartbeat CPU 0 instructions: 70000019 cycles: 46338861 heartbeat IPC: 1.686 cumulative IPC: 1.511 (Simulation time: 00 hr 05 min 12 sec)
Heartbeat CPU 0 instructions: 80000019 cycles: 52446999 heartbeat IPC: 1.637 cumulative IPC: 1.525 (Simulation time: 00 hr 05 min 53 sec)
Heartbeat CPU 0 instructions: 90000023 cycles: 58355330 heartbeat IPC: 1.693 cumulative IPC: 1.542 (Simulation time: 00 hr 06 min 35 sec)
Heartbeat CPU 0 instructions: 100000028 cycles: 64168771 heartbeat IPC: 1.72 cumulative IPC: 1.558 (Simulation time: 00 hr 07 min 16 sec)
Heartbeat CPU 0 instructions: 110000035 cycles: 70305533 heartbeat IPC: 1.63 cumulative IPC: 1.565 (Simulation time: 00 hr 07 min 58 sec)
Heartbeat CPU 0 instructions: 120000040 cycles: 76372465 heartbeat IPC: 1.648 cumulative IPC: 1.571 (Simulation time: 00 hr 08 min 40 sec)
Heartbeat CPU 0 instructions: 130000044 cycles: 82196783 heartbeat IPC: 1.717 cumulative IPC: 1.582 (Simulation time: 00 hr 09 min 21 sec)
Heartbeat CPU 0 instructions: 140000047 cycles: 89751717 heartbeat IPC: 1.324 cumulative IPC: 1.56 (Simulation time: 00 hr 10 min 10 sec)
Heartbeat CPU 0 instructions: 150000053 cycles: 95054477 heartbeat IPC: 1.886 cumulative IPC: 1.578 (Simulation time: 00 hr 10 min 51 sec)
Heartbeat CPU 0 instructions: 160000053 cycles: 101223119 heartbeat IPC: 1.621 cumulative IPC: 1.581 (Simulation time: 00 hr 11 min 33 sec)
Heartbeat CPU 0 instructions: 170000059 cycles: 108574165 heartbeat IPC: 1.36 cumulative IPC: 1.566 (Simulation time: 00 hr 12 min 21 sec)
Heartbeat CPU 0 instructions: 180000064 cycles: 116588174 heartbeat IPC: 1.248 cumulative IPC: 1.544 (Simulation time: 00 hr 13 min 11 sec)
Heartbeat CPU 0 instructions: 190000065 cycles: 125756814 heartbeat IPC: 1.091 cumulative IPC: 1.511 (Simulation time: 00 hr 14 min 05 sec)
Warmup finished CPU 0 instructions: 200000007 cycles: 133616273 cumulative IPC: 1.497 (Simulation time: 00 hr 14 min 57 sec)
Warmup complete CPU 0 instructions: 200000007 cycles: 133616273 cumulative IPC: 1.497 (Simulation time: 00 hr 14 min 57 sec)
Heartbeat CPU 0 instructions: 200000071 cycles: 133616281 heartbeat IPC: 1.272 cumulative IPC: 8 (Simulation time: 00 hr 14 min 57 sec)
Heartbeat CPU 0 instructions: 210000072 cycles: 145793259 heartbeat IPC: 0.8212 cumulative IPC: 0.8212 (Simulation time: 00 hr 16 min 00 sec)
Heartbeat CPU 0 instructions: 220000074 cycles: 158174819 heartbeat IPC: 0.8077 cumulative IPC: 0.8144 (Simulation time: 00 hr 17 min 07 sec)
Heartbeat CPU 0 instructions: 230000074 cycles: 166894626 heartbeat IPC: 1.147 cumulative IPC: 0.9015 (Simulation time: 00 hr 17 min 58 sec)
Heartbeat CPU 0 instructions: 240000080 cycles: 190652749 heartbeat IPC: 0.4209 cumulative IPC: 0.7013 (Simulation time: 00 hr 19 min 35 sec)
Heartbeat CPU 0 instructions: 250000080 cycles: 204058168 heartbeat IPC: 0.746 cumulative IPC: 0.7098 (Simulation time: 00 hr 20 min 39 sec)
Heartbeat CPU 0 instructions: 260000083 cycles: 220413633 heartbeat IPC: 0.6114 cumulative IPC: 0.6913 (Simulation time: 00 hr 21 min 58 sec)
Heartbeat CPU 0 instructions: 270000086 cycles: 227717500 heartbeat IPC: 1.369 cumulative IPC: 0.7439 (Simulation time: 00 hr 22 min 54 sec)
Heartbeat CPU 0 instructions: 280000089 cycles: 236652395 heartbeat IPC: 1.119 cumulative IPC: 0.7764 (Simulation time: 00 hr 23 min 54 sec)
Heartbeat CPU 0 instructions: 290000092 cycles: 243795667 heartbeat IPC: 1.4 cumulative IPC: 0.8169 (Simulation time: 00 hr 24 min 46 sec)
Heartbeat CPU 0 instructions: 300000095 cycles: 259551580 heartbeat IPC: 0.6347 cumulative IPC: 0.7941 (Simulation time: 00 hr 26 min 04 sec)
Heartbeat CPU 0 instructions: 310000095 cycles: 267842111 heartbeat IPC: 1.206 cumulative IPC: 0.8195 (Simulation time: 00 hr 27 min 00 sec)
Heartbeat CPU 0 instructions: 320000101 cycles: 284605306 heartbeat IPC: 0.5965 cumulative IPC: 0.7948 (Simulation time: 00 hr 28 min 19 sec)
Heartbeat CPU 0 instructions: 330000101 cycles: 299575341 heartbeat IPC: 0.668 cumulative IPC: 0.7833 (Simulation time: 00 hr 29 min 38 sec)
Heartbeat CPU 0 instructions: 340000103 cycles: 311515763 heartbeat IPC: 0.8375 cumulative IPC: 0.787 (Simulation time: 00 hr 30 min 37 sec)
Heartbeat CPU 0 instructions: 350000104 cycles: 322389165 heartbeat IPC: 0.9197 cumulative IPC: 0.7946 (Simulation time: 00 hr 31 min 35 sec)
Heartbeat CPU 0 instructions: 360000108 cycles: 334633173 heartbeat IPC: 0.8167 cumulative IPC: 0.796 (Simulation time: 00 hr 32 min 35 sec)
Heartbeat CPU 0 instructions: 370000111 cycles: 345797425 heartbeat IPC: 0.8957 cumulative IPC: 0.8012 (Simulation time: 00 hr 33 min 36 sec)
Heartbeat CPU 0 instructions: 380000117 cycles: 355654727 heartbeat IPC: 1.014 cumulative IPC: 0.8107 (Simulation time: 00 hr 34 min 36 sec)
Heartbeat CPU 0 instructions: 390000123 cycles: 366096103 heartbeat IPC: 0.9577 cumulative IPC: 0.8173 (Simulation time: 00 hr 35 min 36 sec)
Heartbeat CPU 0 instructions: 400000130 cycles: 374193857 heartbeat IPC: 1.235 cumulative IPC: 0.8313 (Simulation time: 00 hr 36 min 30 sec)
Heartbeat CPU 0 instructions: 410000136 cycles: 383541116 heartbeat IPC: 1.07 cumulative IPC: 0.8403 (Simulation time: 00 hr 37 min 23 sec)
Heartbeat CPU 0 instructions: 420000141 cycles: 395280764 heartbeat IPC: 0.8518 cumulative IPC: 0.8408 (Simulation time: 00 hr 38 min 22 sec)
Heartbeat CPU 0 instructions: 430000142 cycles: 405176317 heartbeat IPC: 1.011 cumulative IPC: 0.847 (Simulation time: 00 hr 39 min 14 sec)
Heartbeat CPU 0 instructions: 440000147 cycles: 418387077 heartbeat IPC: 0.757 cumulative IPC: 0.8428 (Simulation time: 00 hr 40 min 19 sec)
Heartbeat CPU 0 instructions: 450000147 cycles: 426642553 heartbeat IPC: 1.211 cumulative IPC: 0.8532 (Simulation time: 00 hr 41 min 11 sec)
Heartbeat CPU 0 instructions: 460000150 cycles: 435981016 heartbeat IPC: 1.071 cumulative IPC: 0.8599 (Simulation time: 00 hr 42 min 07 sec)
Heartbeat CPU 0 instructions: 470000152 cycles: 443901448 heartbeat IPC: 1.263 cumulative IPC: 0.8702 (Simulation time: 00 hr 43 min 00 sec)
Heartbeat CPU 0 instructions: 480000155 cycles: 454216114 heartbeat IPC: 0.9695 cumulative IPC: 0.8734 (Simulation time: 00 hr 44 min 00 sec)
Heartbeat CPU 0 instructions: 490000158 cycles: 461671464 heartbeat IPC: 1.341 cumulative IPC: 0.884 (Simulation time: 00 hr 44 min 50 sec)
Heartbeat CPU 0 instructions: 500000158 cycles: 474308992 heartbeat IPC: 0.7913 cumulative IPC: 0.8806 (Simulation time: 00 hr 45 min 53 sec)
Heartbeat CPU 0 instructions: 510000162 cycles: 483762506 heartbeat IPC: 1.058 cumulative IPC: 0.8853 (Simulation time: 00 hr 46 min 44 sec)
Heartbeat CPU 0 instructions: 520000165 cycles: 493379294 heartbeat IPC: 1.04 cumulative IPC: 0.8895 (Simulation time: 00 hr 47 min 35 sec)
Heartbeat CPU 0 instructions: 530000165 cycles: 505874542 heartbeat IPC: 0.8003 cumulative IPC: 0.8865 (Simulation time: 00 hr 48 min 39 sec)
Heartbeat CPU 0 instructions: 540000167 cycles: 516340737 heartbeat IPC: 0.9555 cumulative IPC: 0.8884 (Simulation time: 00 hr 49 min 40 sec)
Heartbeat CPU 0 instructions: 550000169 cycles: 523779709 heartbeat IPC: 1.344 cumulative IPC: 0.8971 (Simulation time: 00 hr 50 min 30 sec)
Heartbeat CPU 0 instructions: 560000176 cycles: 531701569 heartbeat IPC: 1.262 cumulative IPC: 0.9043 (Simulation time: 00 hr 51 min 24 sec)
Heartbeat CPU 0 instructions: 570000183 cycles: 541990254 heartbeat IPC: 0.9719 cumulative IPC: 0.906 (Simulation time: 00 hr 52 min 23 sec)
Heartbeat CPU 0 instructions: 580000184 cycles: 549328944 heartbeat IPC: 1.363 cumulative IPC: 0.9141 (Simulation time: 00 hr 53 min 11 sec)
Heartbeat CPU 0 instructions: 590000186 cycles: 563290392 heartbeat IPC: 0.7163 cumulative IPC: 0.9077 (Simulation time: 00 hr 54 min 17 sec)
Heartbeat CPU 0 instructions: 600000189 cycles: 572053150 heartbeat IPC: 1.141 cumulative IPC: 0.9123 (Simulation time: 00 hr 55 min 06 sec)
Heartbeat CPU 0 instructions: 610000191 cycles: 582298252 heartbeat IPC: 0.9761 cumulative IPC: 0.9138 (Simulation time: 00 hr 55 min 59 sec)
Heartbeat CPU 0 instructions: 620000193 cycles: 592246403 heartbeat IPC: 1.005 cumulative IPC: 0.9158 (Simulation time: 00 hr 56 min 52 sec)
Heartbeat CPU 0 instructions: 630000195 cycles: 601991739 heartbeat IPC: 1.026 cumulative IPC: 0.9181 (Simulation time: 00 hr 57 min 43 sec)
Heartbeat CPU 0 instructions: 640000201 cycles: 612433011 heartbeat IPC: 0.9577 cumulative IPC: 0.9189 (Simulation time: 00 hr 58 min 36 sec)
Heartbeat CPU 0 instructions: 650000201 cycles: 622549494 heartbeat IPC: 0.9885 cumulative IPC: 0.9204 (Simulation time: 00 hr 59 min 30 sec)
Heartbeat CPU 0 instructions: 660000201 cycles: 632136393 heartbeat IPC: 1.043 cumulative IPC: 0.9227 (Simulation time: 01 hr 00 min 20 sec)
Heartbeat CPU 0 instructions: 670000206 cycles: 642600734 heartbeat IPC: 0.9556 cumulative IPC: 0.9234 (Simulation time: 01 hr 01 min 12 sec)
Heartbeat CPU 0 instructions: 680000210 cycles: 652524946 heartbeat IPC: 1.008 cumulative IPC: 0.925 (Simulation time: 01 hr 02 min 04 sec)
Heartbeat CPU 0 instructions: 690000216 cycles: 662181020 heartbeat IPC: 1.036 cumulative IPC: 0.927 (Simulation time: 01 hr 02 min 55 sec)
Simulation finished CPU 0 instructions: 500000004 cycles: 538365576 cumulative IPC: 0.9287 (Simulation time: 01 hr 03 min 47 sec)
Simulation complete CPU 0 instructions: 500000004 cycles: 538365576 cumulative IPC: 0.9287 (Simulation time: 01 hr 03 min 47 sec)

ChampSim completed all CPUs

=== Simulation ===
CPU 0 runs traces/throttle/throttleTrace_S500B_T1B.champsimtrace.xz

Region of Interest Statistics

CPU 0 cumulative IPC: 0.9287 instructions: 500000004 cycles: 538365576
CPU 0 Branch Prediction Accuracy: 97.26% MPKI: 2.551 Average ROB Occupancy at Mispredict: 82.16
Branch type MPKI
BRANCH_DIRECT_JUMP: 0.007252
BRANCH_INDIRECT: 0.002662
BRANCH_CONDITIONAL: 2.503
BRANCH_DIRECT_CALL: 0.01924
BRANCH_INDIRECT_CALL: 0.006388
BRANCH_RETURN: 0.01276

cpu0->LLC TOTAL        ACCESS:   58910929 HIT:   36389793 MISS:   22521136 MISS_MERGE:   14921690
cpu0->LLC LOAD         ACCESS:    1759677 HIT:    1220323 MISS:     539354 MISS_MERGE:     382197
cpu0->LLC RFO          ACCESS:    2215646 HIT:     531492 MISS:    1684154 MISS_MERGE:        107
cpu0->LLC PREFETCH     ACCESS:   51776478 HIT:   33462872 MISS:   18313606 MISS_MERGE:   14539386
cpu0->LLC WRITE        ACCESS:    3141138 HIT:    1175029 MISS:    1966109 MISS_MERGE:          0
cpu0->LLC TRANSLATION  ACCESS:      17990 HIT:         77 MISS:      17913 MISS_MERGE:          0
cpu0->LLC PREFETCH REQUESTED:          0 ISSUED:          0 USEFUL:          0 USELESS:          0
cpu0->LLC AVERAGE MISS LATENCY: 155.8 cycles
cpu0->cpu0_DTLB TOTAL        ACCESS:  381706574 HIT:  380539411 MISS:    1167163 MISS_MERGE:     773206
cpu0->cpu0_DTLB LOAD         ACCESS:  381706574 HIT:  380539411 MISS:    1167163 MISS_MERGE:     773206
cpu0->cpu0_DTLB RFO          ACCESS:          0 HIT:          0 MISS:          0 MISS_MERGE:          0
cpu0->cpu0_DTLB PREFETCH     ACCESS:          0 HIT:          0 MISS:          0 MISS_MERGE:          0
cpu0->cpu0_DTLB WRITE        ACCESS:          0 HIT:          0 MISS:          0 MISS_MERGE:          0
cpu0->cpu0_DTLB TRANSLATION  ACCESS:          0 HIT:          0 MISS:          0 MISS_MERGE:          0
cpu0->cpu0_DTLB PREFETCH REQUESTED:          0 ISSUED:          0 USEFUL:          0 USELESS:          0
cpu0->cpu0_DTLB AVERAGE MISS LATENCY: 18.65 cycles
cpu0->cpu0_ITLB TOTAL        ACCESS:  124862366 HIT:  124833478 MISS:      28888 MISS_MERGE:      13075
cpu0->cpu0_ITLB LOAD         ACCESS:  124862366 HIT:  124833478 MISS:      28888 MISS_MERGE:      13075
cpu0->cpu0_ITLB RFO          ACCESS:          0 HIT:          0 MISS:          0 MISS_MERGE:          0
cpu0->cpu0_ITLB PREFETCH     ACCESS:          0 HIT:          0 MISS:          0 MISS_MERGE:          0
cpu0->cpu0_ITLB WRITE        ACCESS:          0 HIT:          0 MISS:          0 MISS_MERGE:          0
cpu0->cpu0_ITLB TRANSLATION  ACCESS:          0 HIT:          0 MISS:          0 MISS_MERGE:          0
cpu0->cpu0_ITLB PREFETCH REQUESTED:          0 ISSUED:          0 USEFUL:          0 USELESS:          0
cpu0->cpu0_ITLB AVERAGE MISS LATENCY: 107.4 cycles
cpu0->cpu0_L1D TOTAL        ACCESS:  385064957 HIT:  294711501 MISS:   90353456 MISS_MERGE:   71991315
cpu0->cpu0_L1D LOAD         ACCESS:  183531789 HIT:  149944664 MISS:   33587125 MISS_MERGE:   25148070
cpu0->cpu0_L1D RFO          ACCESS:          0 HIT:          0 MISS:          0 MISS_MERGE:          0
cpu0->cpu0_L1D PREFETCH     ACCESS:   86340572 HIT:   71173344 MISS:   15167228 MISS_MERGE:    8483539
cpu0->cpu0_L1D WRITE        ACCESS:  115046964 HIT:   73473100 MISS:   41573864 MISS_MERGE:   38359321
cpu0->cpu0_L1D TRANSLATION  ACCESS:     145632 HIT:     120393 MISS:      25239 MISS_MERGE:        385
cpu0->cpu0_L1D PREFETCH REQUESTED:  187654066 ISSUED:   86340572 USEFUL:    6353384 USELESS:     330370
cpu0->cpu0_L1D AVERAGE MISS LATENCY: 72.4 cycles
cpu0->cpu0_L1I TOTAL        ACCESS:  125307875 HIT:  125251922 MISS:      55953 MISS_MERGE:      10611
cpu0->cpu0_L1I LOAD         ACCESS:  125307875 HIT:  125251922 MISS:      55953 MISS_MERGE:      10611
cpu0->cpu0_L1I RFO          ACCESS:          0 HIT:          0 MISS:          0 MISS_MERGE:          0
cpu0->cpu0_L1I PREFETCH     ACCESS:          0 HIT:          0 MISS:          0 MISS_MERGE:          0
cpu0->cpu0_L1I WRITE        ACCESS:          0 HIT:          0 MISS:          0 MISS_MERGE:          0
cpu0->cpu0_L1I TRANSLATION  ACCESS:          0 HIT:          0 MISS:          0 MISS_MERGE:          0
cpu0->cpu0_L1I PREFETCH REQUESTED:          0 ISSUED:          0 USEFUL:          0 USELESS:          0
cpu0->cpu0_L1I AVERAGE MISS LATENCY: 181.5 cycles
cpu0->cpu0_L2C TOTAL        ACCESS:  148310604 HIT:   90355073 MISS:   57955531 MISS_MERGE:    2185721
cpu0->cpu0_L2C LOAD         ACCESS:    8484397 HIT:    6065359 MISS:    2419038 MISS_MERGE:     659361
cpu0->cpu0_L2C RFO          ACCESS:    3214543 HIT:     998895 MISS:    2215648 MISS_MERGE:          2
cpu0->cpu0_L2C PREFETCH     ACCESS:  129380447 HIT:   76077611 MISS:   53302836 MISS_MERGE:    1526358
cpu0->cpu0_L2C WRITE        ACCESS:    7206363 HIT:    7206344 MISS:         19 MISS_MERGE:          0
cpu0->cpu0_L2C TRANSLATION  ACCESS:      24854 HIT:       6864 MISS:      17990 MISS_MERGE:          0
cpu0->cpu0_L2C PREFETCH REQUESTED:  209858868 ISSUED:  122696774 USEFUL:    2991864 USELESS:     141001
cpu0->cpu0_L2C AVERAGE MISS LATENCY: 165 cycles
cpu0->cpu0_STLB TOTAL        ACCESS:     409770 HIT:     337388 MISS:      72382 MISS_MERGE:          0
cpu0->cpu0_STLB LOAD         ACCESS:     409770 HIT:     337388 MISS:      72382 MISS_MERGE:          0
cpu0->cpu0_STLB RFO          ACCESS:          0 HIT:          0 MISS:          0 MISS_MERGE:          0
cpu0->cpu0_STLB PREFETCH     ACCESS:          0 HIT:          0 MISS:          0 MISS_MERGE:          0
cpu0->cpu0_STLB WRITE        ACCESS:          0 HIT:          0 MISS:          0 MISS_MERGE:          0
cpu0->cpu0_STLB TRANSLATION  ACCESS:          0 HIT:          0 MISS:          0 MISS_MERGE:          0
cpu0->cpu0_STLB PREFETCH REQUESTED:          0 ISSUED:          0 USEFUL:          0 USELESS:          0
cpu0->cpu0_STLB AVERAGE MISS LATENCY: 95.66 cycles

DRAM Statistics

Channel 0 RQ ROW_BUFFER_HIT:     531798
  ROW_BUFFER_MISS:    5097180
  AVG DBUS CONGESTED CYCLE: 15.62
Channel 0 WQ ROW_BUFFER_HIT:     329459
  ROW_BUFFER_MISS:    1973382
  FULL:      91684
Channel 0 REFRESHES ISSUED:      44861
End: Thu Jul  2 11:57:16 AM UTC 2026
