Running ChampSim with config: dpc4/1C.fullBW.typical.json
Trace: traces/throttle/throttleTrace_S500B_T1B.champsimtrace.xz
Start: Fri Jul 17 03:35:58 PM UTC 2026
[VMEM] WARNING: physical memory size is smaller than virtual memory size.

*** ChampSim Multicore Out-of-Order Simulator ***
Warmup Instructions: 200000000
Simulation Instructions: 500000000
Number of CPUs: 1
Page size: 4096

Initialize SIGNATURE TABLE
ST_SET: 1
ST_WAY: 256
ST_TAG_BIT: 16

Initialize PATTERN TABLE
PT_SET: 512
PT_WAY: 4
SIG_DELTA_BIT: 7
C_SIG_BIT: 4
C_DELTA_BIT: 4

Initialize PREFETCH FILTER
FILTER_SET: 1024
Off-chip DRAM Size: 64 GiB Channels: 1 Width: 64-bit Data Rate: 4807 MT/s
Heartbeat CPU 0 instructions: 10000006 cycles: 8430108 heartbeat IPC: 1.186 cumulative IPC: 1.186 (Simulation time: 00 hr 00 min 52 sec)
Heartbeat CPU 0 instructions: 20000006 cycles: 15879871 heartbeat IPC: 1.342 cumulative IPC: 1.259 (Simulation time: 00 hr 01 min 43 sec)
Heartbeat CPU 0 instructions: 30000009 cycles: 22414031 heartbeat IPC: 1.53 cumulative IPC: 1.338 (Simulation time: 00 hr 02 min 29 sec)
Heartbeat CPU 0 instructions: 40000010 cycles: 28460642 heartbeat IPC: 1.654 cumulative IPC: 1.405 (Simulation time: 00 hr 03 min 12 sec)
Heartbeat CPU 0 instructions: 50000013 cycles: 34248949 heartbeat IPC: 1.728 cumulative IPC: 1.46 (Simulation time: 00 hr 03 min 55 sec)
Heartbeat CPU 0 instructions: 60000015 cycles: 40338449 heartbeat IPC: 1.642 cumulative IPC: 1.487 (Simulation time: 00 hr 04 min 38 sec)
Heartbeat CPU 0 instructions: 70000019 cycles: 46269991 heartbeat IPC: 1.686 cumulative IPC: 1.513 (Simulation time: 00 hr 05 min 20 sec)
Heartbeat CPU 0 instructions: 80000019 cycles: 52377907 heartbeat IPC: 1.637 cumulative IPC: 1.527 (Simulation time: 00 hr 06 min 02 sec)
Heartbeat CPU 0 instructions: 90000021 cycles: 58286169 heartbeat IPC: 1.693 cumulative IPC: 1.544 (Simulation time: 00 hr 06 min 45 sec)
Heartbeat CPU 0 instructions: 100000023 cycles: 64099439 heartbeat IPC: 1.72 cumulative IPC: 1.56 (Simulation time: 00 hr 07 min 27 sec)
Heartbeat CPU 0 instructions: 110000025 cycles: 70236312 heartbeat IPC: 1.629 cumulative IPC: 1.566 (Simulation time: 00 hr 08 min 10 sec)
Heartbeat CPU 0 instructions: 120000032 cycles: 76303360 heartbeat IPC: 1.648 cumulative IPC: 1.573 (Simulation time: 00 hr 08 min 53 sec)
Heartbeat CPU 0 instructions: 130000038 cycles: 82127527 heartbeat IPC: 1.717 cumulative IPC: 1.583 (Simulation time: 00 hr 09 min 35 sec)
Heartbeat CPU 0 instructions: 140000039 cycles: 89707741 heartbeat IPC: 1.319 cumulative IPC: 1.561 (Simulation time: 00 hr 10 min 26 sec)
Heartbeat CPU 0 instructions: 150000046 cycles: 95029333 heartbeat IPC: 1.879 cumulative IPC: 1.578 (Simulation time: 00 hr 11 min 08 sec)
Heartbeat CPU 0 instructions: 160000046 cycles: 101186642 heartbeat IPC: 1.624 cumulative IPC: 1.581 (Simulation time: 00 hr 11 min 51 sec)
Heartbeat CPU 0 instructions: 170000051 cycles: 108534375 heartbeat IPC: 1.361 cumulative IPC: 1.566 (Simulation time: 00 hr 12 min 41 sec)
Heartbeat CPU 0 instructions: 180000056 cycles: 116530216 heartbeat IPC: 1.251 cumulative IPC: 1.545 (Simulation time: 00 hr 13 min 32 sec)
Heartbeat CPU 0 instructions: 190000057 cycles: 125685872 heartbeat IPC: 1.092 cumulative IPC: 1.512 (Simulation time: 00 hr 14 min 28 sec)
Warmup finished CPU 0 instructions: 200000003 cycles: 133629844 cumulative IPC: 1.497 (Simulation time: 00 hr 15 min 21 sec)
Warmup complete CPU 0 instructions: 200000003 cycles: 133629844 cumulative IPC: 1.497 (Simulation time: 00 hr 15 min 21 sec)
Heartbeat CPU 0 instructions: 200000057 cycles: 133629868 heartbeat IPC: 1.259 cumulative IPC: 2.348 (Simulation time: 00 hr 15 min 21 sec)
Heartbeat CPU 0 instructions: 210000064 cycles: 145731216 heartbeat IPC: 0.8264 cumulative IPC: 0.8264 (Simulation time: 00 hr 16 min 25 sec)
Heartbeat CPU 0 instructions: 220000066 cycles: 158142236 heartbeat IPC: 0.8057 cumulative IPC: 0.8159 (Simulation time: 00 hr 17 min 32 sec)
Heartbeat CPU 0 instructions: 230000066 cycles: 166857000 heartbeat IPC: 1.147 cumulative IPC: 0.9029 (Simulation time: 00 hr 18 min 23 sec)
Heartbeat CPU 0 instructions: 240000072 cycles: 190591059 heartbeat IPC: 0.4213 cumulative IPC: 0.7022 (Simulation time: 00 hr 20 min 02 sec)
Heartbeat CPU 0 instructions: 250000072 cycles: 203976858 heartbeat IPC: 0.7471 cumulative IPC: 0.7108 (Simulation time: 00 hr 21 min 06 sec)
Heartbeat CPU 0 instructions: 260000075 cycles: 220353008 heartbeat IPC: 0.6106 cumulative IPC: 0.6919 (Simulation time: 00 hr 22 min 26 sec)
Heartbeat CPU 0 instructions: 270000080 cycles: 227657093 heartbeat IPC: 1.369 cumulative IPC: 0.7445 (Simulation time: 00 hr 23 min 22 sec)
Heartbeat CPU 0 instructions: 280000081 cycles: 236571063 heartbeat IPC: 1.122 cumulative IPC: 0.7771 (Simulation time: 00 hr 24 min 22 sec)
Heartbeat CPU 0 instructions: 290000087 cycles: 243699765 heartbeat IPC: 1.403 cumulative IPC: 0.8177 (Simulation time: 00 hr 25 min 15 sec)
Heartbeat CPU 0 instructions: 300000092 cycles: 259476350 heartbeat IPC: 0.6339 cumulative IPC: 0.7946 (Simulation time: 00 hr 26 min 33 sec)
Heartbeat CPU 0 instructions: 310000093 cycles: 267756308 heartbeat IPC: 1.208 cumulative IPC: 0.8201 (Simulation time: 00 hr 27 min 29 sec)
Heartbeat CPU 0 instructions: 320000097 cycles: 284532535 heartbeat IPC: 0.5961 cumulative IPC: 0.7952 (Simulation time: 00 hr 28 min 50 sec)
Heartbeat CPU 0 instructions: 330000097 cycles: 299532214 heartbeat IPC: 0.6667 cumulative IPC: 0.7836 (Simulation time: 00 hr 30 min 10 sec)
Heartbeat CPU 0 instructions: 340000103 cycles: 311490124 heartbeat IPC: 0.8363 cumulative IPC: 0.7871 (Simulation time: 00 hr 31 min 09 sec)
Heartbeat CPU 0 instructions: 350000105 cycles: 322355165 heartbeat IPC: 0.9204 cumulative IPC: 0.7948 (Simulation time: 00 hr 32 min 08 sec)
Heartbeat CPU 0 instructions: 360000108 cycles: 334585165 heartbeat IPC: 0.8177 cumulative IPC: 0.7962 (Simulation time: 00 hr 33 min 08 sec)
Heartbeat CPU 0 instructions: 370000111 cycles: 345749639 heartbeat IPC: 0.8957 cumulative IPC: 0.8014 (Simulation time: 00 hr 34 min 10 sec)
Heartbeat CPU 0 instructions: 380000118 cycles: 355617539 heartbeat IPC: 1.013 cumulative IPC: 0.8109 (Simulation time: 00 hr 35 min 09 sec)
Heartbeat CPU 0 instructions: 390000123 cycles: 366058938 heartbeat IPC: 0.9577 cumulative IPC: 0.8175 (Simulation time: 00 hr 36 min 09 sec)
Heartbeat CPU 0 instructions: 400000127 cycles: 374132211 heartbeat IPC: 1.239 cumulative IPC: 0.8316 (Simulation time: 00 hr 37 min 04 sec)
Heartbeat CPU 0 instructions: 410000128 cycles: 383482508 heartbeat IPC: 1.069 cumulative IPC: 0.8405 (Simulation time: 00 hr 37 min 57 sec)
Heartbeat CPU 0 instructions: 420000133 cycles: 395259707 heartbeat IPC: 0.8491 cumulative IPC: 0.8409 (Simulation time: 00 hr 38 min 57 sec)
Heartbeat CPU 0 instructions: 430000134 cycles: 405139708 heartbeat IPC: 1.012 cumulative IPC: 0.8471 (Simulation time: 00 hr 39 min 49 sec)
Heartbeat CPU 0 instructions: 440000139 cycles: 418382599 heartbeat IPC: 0.7551 cumulative IPC: 0.8428 (Simulation time: 00 hr 40 min 54 sec)
Heartbeat CPU 0 instructions: 450000139 cycles: 426636233 heartbeat IPC: 1.212 cumulative IPC: 0.8532 (Simulation time: 00 hr 41 min 47 sec)
Heartbeat CPU 0 instructions: 460000142 cycles: 435999461 heartbeat IPC: 1.068 cumulative IPC: 0.8599 (Simulation time: 00 hr 42 min 43 sec)
Heartbeat CPU 0 instructions: 470000146 cycles: 443939024 heartbeat IPC: 1.26 cumulative IPC: 0.8701 (Simulation time: 00 hr 43 min 37 sec)
Heartbeat CPU 0 instructions: 480000150 cycles: 454291085 heartbeat IPC: 0.966 cumulative IPC: 0.8732 (Simulation time: 00 hr 44 min 37 sec)
Heartbeat CPU 0 instructions: 490000150 cycles: 461756343 heartbeat IPC: 1.34 cumulative IPC: 0.8838 (Simulation time: 00 hr 45 min 27 sec)
Heartbeat CPU 0 instructions: 500000150 cycles: 474391630 heartbeat IPC: 0.7914 cumulative IPC: 0.8804 (Simulation time: 00 hr 46 min 30 sec)
Heartbeat CPU 0 instructions: 510000151 cycles: 483851389 heartbeat IPC: 1.057 cumulative IPC: 0.8852 (Simulation time: 00 hr 47 min 21 sec)
Heartbeat CPU 0 instructions: 520000154 cycles: 493450606 heartbeat IPC: 1.042 cumulative IPC: 0.8893 (Simulation time: 00 hr 48 min 13 sec)
Heartbeat CPU 0 instructions: 530000158 cycles: 505955163 heartbeat IPC: 0.7997 cumulative IPC: 0.8863 (Simulation time: 00 hr 49 min 18 sec)
Heartbeat CPU 0 instructions: 540000161 cycles: 516414425 heartbeat IPC: 0.9561 cumulative IPC: 0.8882 (Simulation time: 00 hr 50 min 19 sec)
Heartbeat CPU 0 instructions: 550000161 cycles: 523851712 heartbeat IPC: 1.345 cumulative IPC: 0.8969 (Simulation time: 00 hr 51 min 09 sec)
Heartbeat CPU 0 instructions: 560000164 cycles: 531771209 heartbeat IPC: 1.263 cumulative IPC: 0.9042 (Simulation time: 00 hr 52 min 03 sec)
Heartbeat CPU 0 instructions: 570000170 cycles: 542087020 heartbeat IPC: 0.9694 cumulative IPC: 0.9058 (Simulation time: 00 hr 53 min 03 sec)
Heartbeat CPU 0 instructions: 580000171 cycles: 549401286 heartbeat IPC: 1.367 cumulative IPC: 0.914 (Simulation time: 00 hr 53 min 51 sec)
Heartbeat CPU 0 instructions: 590000174 cycles: 563386553 heartbeat IPC: 0.715 cumulative IPC: 0.9075 (Simulation time: 00 hr 54 min 57 sec)
Heartbeat CPU 0 instructions: 600000177 cycles: 572220225 heartbeat IPC: 1.132 cumulative IPC: 0.912 (Simulation time: 00 hr 55 min 46 sec)
Heartbeat CPU 0 instructions: 610000177 cycles: 582465481 heartbeat IPC: 0.9761 cumulative IPC: 0.9135 (Simulation time: 00 hr 56 min 40 sec)
Heartbeat CPU 0 instructions: 620000184 cycles: 592401140 heartbeat IPC: 1.006 cumulative IPC: 0.9155 (Simulation time: 00 hr 57 min 33 sec)
Heartbeat CPU 0 instructions: 630000184 cycles: 602150678 heartbeat IPC: 1.026 cumulative IPC: 0.9178 (Simulation time: 00 hr 58 min 25 sec)
Heartbeat CPU 0 instructions: 640000184 cycles: 612558596 heartbeat IPC: 0.9608 cumulative IPC: 0.9187 (Simulation time: 00 hr 59 min 18 sec)
Heartbeat CPU 0 instructions: 650000184 cycles: 622709408 heartbeat IPC: 0.9851 cumulative IPC: 0.9201 (Simulation time: 01 hr 00 min 12 sec)
Heartbeat CPU 0 instructions: 660000190 cycles: 632311807 heartbeat IPC: 1.041 cumulative IPC: 0.9224 (Simulation time: 01 hr 01 min 03 sec)
Heartbeat CPU 0 instructions: 670000194 cycles: 642738327 heartbeat IPC: 0.9591 cumulative IPC: 0.9232 (Simulation time: 01 hr 01 min 56 sec)
Heartbeat CPU 0 instructions: 680000194 cycles: 652664853 heartbeat IPC: 1.007 cumulative IPC: 0.9248 (Simulation time: 01 hr 02 min 48 sec)
Heartbeat CPU 0 instructions: 690000197 cycles: 662320237 heartbeat IPC: 1.036 cumulative IPC: 0.9268 (Simulation time: 01 hr 03 min 39 sec)
Simulation finished CPU 0 instructions: 500000000 cycles: 538500536 cumulative IPC: 0.9285 (Simulation time: 01 hr 04 min 31 sec)
Simulation complete CPU 0 instructions: 500000000 cycles: 538500536 cumulative IPC: 0.9285 (Simulation time: 01 hr 04 min 31 sec)

ChampSim completed all CPUs

=== Simulation ===
CPU 0 runs traces/throttle/throttleTrace_S500B_T1B.champsimtrace.xz

Region of Interest Statistics

CPU 0 cumulative IPC: 0.9285 instructions: 500000000 cycles: 538500536
CPU 0 Branch Prediction Accuracy: 97.26% MPKI: 2.551 Average ROB Occupancy at Mispredict: 82.09
Branch type MPKI
BRANCH_DIRECT_JUMP: 0.007252
BRANCH_INDIRECT: 0.002662
BRANCH_CONDITIONAL: 2.503
BRANCH_DIRECT_CALL: 0.01924
BRANCH_INDIRECT_CALL: 0.006388
BRANCH_RETURN: 0.01276
IDLE Cycles
Fetch Idle Cycles 429209246
Fetch Blocked Cycles 48390639
IFetch Failed Events 56343
Fetch Buffer Not Empty 94412395
Decode Idle Cycles 377679791
Dispatch Idle Cycles 395038445
Execute Idle Cycles 352957252
Execute None Cycles 342818967
Execute Head Not Ready Cycles 360771
Execute Head Not Completed Cycles 333505628
Execute Pending Cycles 340913739
Execute Load Blocked Cycles 333505628
Scheduler Idle Cycles 433502832
Scheduler None Cycles 385853724
ROB Idle Cycles 399939666
LQ Full Events 18851660
SQ Full Events 176268611

cpu0->LLC TOTAL        ACCESS:   58916472 HIT:   36386310 MISS:   22530162 MISS_MERGE:   14930378
cpu0->LLC LOAD         ACCESS:    1755932 HIT:    1218780 MISS:     537152 MISS_MERGE:     379487
cpu0->LLC RFO          ACCESS:    2215354 HIT:     531227 MISS:    1684127 MISS_MERGE:         96
cpu0->LLC PREFETCH     ACCESS:   51786111 HIT:   33460908 MISS:   18325203 MISS_MERGE:   14550795
cpu0->LLC WRITE        ACCESS:    3141087 HIT:    1175321 MISS:    1965766 MISS_MERGE:          0
cpu0->LLC TRANSLATION  ACCESS:      17988 HIT:         74 MISS:      17914 MISS_MERGE:          0
cpu0->LLC PREFETCH REQUESTED:          0 ISSUED:          0 USEFUL:          0 USELESS:          0
cpu0->LLC AVERAGE MISS LATENCY: 155.8 cycles
cpu0->cpu0_DTLB TOTAL        ACCESS:  381784965 HIT:  380616644 MISS:    1168321 MISS_MERGE:     774484
cpu0->cpu0_DTLB LOAD         ACCESS:  381784965 HIT:  380616644 MISS:    1168321 MISS_MERGE:     774484
cpu0->cpu0_DTLB RFO          ACCESS:          0 HIT:          0 MISS:          0 MISS_MERGE:          0
cpu0->cpu0_DTLB PREFETCH     ACCESS:          0 HIT:          0 MISS:          0 MISS_MERGE:          0
cpu0->cpu0_DTLB WRITE        ACCESS:          0 HIT:          0 MISS:          0 MISS_MERGE:          0
cpu0->cpu0_DTLB TRANSLATION  ACCESS:          0 HIT:          0 MISS:          0 MISS_MERGE:          0
cpu0->cpu0_DTLB PREFETCH REQUESTED:          0 ISSUED:          0 USEFUL:          0 USELESS:          0
cpu0->cpu0_DTLB AVERAGE MISS LATENCY: 18.69 cycles
cpu0->cpu0_ITLB TOTAL        ACCESS:  124861906 HIT:  124833005 MISS:      28901 MISS_MERGE:      13082
cpu0->cpu0_ITLB LOAD         ACCESS:  124861906 HIT:  124833005 MISS:      28901 MISS_MERGE:      13082
cpu0->cpu0_ITLB RFO          ACCESS:          0 HIT:          0 MISS:          0 MISS_MERGE:          0
cpu0->cpu0_ITLB PREFETCH     ACCESS:          0 HIT:          0 MISS:          0 MISS_MERGE:          0
cpu0->cpu0_ITLB WRITE        ACCESS:          0 HIT:          0 MISS:          0 MISS_MERGE:          0
cpu0->cpu0_ITLB TRANSLATION  ACCESS:          0 HIT:          0 MISS:          0 MISS_MERGE:          0
cpu0->cpu0_ITLB PREFETCH REQUESTED:          0 ISSUED:          0 USEFUL:          0 USELESS:          0
cpu0->cpu0_ITLB AVERAGE MISS LATENCY: 107.8 cycles
cpu0->cpu0_L1D TOTAL        ACCESS:  385134192 HIT:  294816627 MISS:   90317565 MISS_MERGE:   71955878
cpu0->cpu0_L1D LOAD         ACCESS:  183531593 HIT:  150017990 MISS:   33513603 MISS_MERGE:   25093229
cpu0->cpu0_L1D RFO          ACCESS:          0 HIT:          0 MISS:          0 MISS_MERGE:          0
cpu0->cpu0_L1D PREFETCH     ACCESS:   86410013 HIT:   71198480 MISS:   15211533 MISS_MERGE:    8509619
cpu0->cpu0_L1D WRITE        ACCESS:  115046958 HIT:   73479759 MISS:   41567199 MISS_MERGE:   38352660
cpu0->cpu0_L1D TRANSLATION  ACCESS:     145628 HIT:     120398 MISS:      25230 MISS_MERGE:        370
cpu0->cpu0_L1D PREFETCH REQUESTED:  187503384 ISSUED:   86410013 USEFUL:    6372356 USELESS:     329627
cpu0->cpu0_L1D AVERAGE MISS LATENCY: 72.45 cycles
cpu0->cpu0_L1I TOTAL        ACCESS:  125309888 HIT:  125253693 MISS:      56195 MISS_MERGE:      10822
cpu0->cpu0_L1I LOAD         ACCESS:  125309888 HIT:  125253693 MISS:      56195 MISS_MERGE:      10822
cpu0->cpu0_L1I RFO          ACCESS:          0 HIT:          0 MISS:          0 MISS_MERGE:          0
cpu0->cpu0_L1I PREFETCH     ACCESS:          0 HIT:          0 MISS:          0 MISS_MERGE:          0
cpu0->cpu0_L1I WRITE        ACCESS:          0 HIT:          0 MISS:          0 MISS_MERGE:          0
cpu0->cpu0_L1I TRANSLATION  ACCESS:          0 HIT:          0 MISS:          0 MISS_MERGE:          0
cpu0->cpu0_L1I PREFETCH REQUESTED:          0 ISSUED:          0 USEFUL:          0 USELESS:          0
cpu0->cpu0_L1I AVERAGE MISS LATENCY: 181 cycles
cpu0->cpu0_L2C TOTAL        ACCESS:  148324435 HIT:   90361208 MISS:   57963227 MISS_MERGE:    2187817
cpu0->cpu0_L2C LOAD         ACCESS:    8465747 HIT:    6049341 MISS:    2416406 MISS_MERGE:     660474
cpu0->cpu0_L2C RFO          ACCESS:    3214539 HIT:     999184 MISS:    2215355 MISS_MERGE:          1
cpu0->cpu0_L2C PREFETCH     ACCESS:  129412663 HIT:   76099204 MISS:   53313459 MISS_MERGE:    1527342
cpu0->cpu0_L2C WRITE        ACCESS:    7206626 HIT:    7206607 MISS:         19 MISS_MERGE:          0
cpu0->cpu0_L2C TRANSLATION  ACCESS:      24860 HIT:       6872 MISS:      17988 MISS_MERGE:          0
cpu0->cpu0_L2C PREFETCH REQUESTED:  209806832 ISSUED:  122710764 USEFUL:    2994528 USELESS:     141509
cpu0->cpu0_L2C AVERAGE MISS LATENCY: 164.9 cycles
cpu0->cpu0_STLB TOTAL        ACCESS:     409656 HIT:     337277 MISS:      72379 MISS_MERGE:          0
cpu0->cpu0_STLB LOAD         ACCESS:     409656 HIT:     337277 MISS:      72379 MISS_MERGE:          0
cpu0->cpu0_STLB RFO          ACCESS:          0 HIT:          0 MISS:          0 MISS_MERGE:          0
cpu0->cpu0_STLB PREFETCH     ACCESS:          0 HIT:          0 MISS:          0 MISS_MERGE:          0
cpu0->cpu0_STLB WRITE        ACCESS:          0 HIT:          0 MISS:          0 MISS_MERGE:          0
cpu0->cpu0_STLB TRANSLATION  ACCESS:          0 HIT:          0 MISS:          0 MISS_MERGE:          0
cpu0->cpu0_STLB PREFETCH REQUESTED:          0 ISSUED:          0 USEFUL:          0 USELESS:          0
cpu0->cpu0_STLB AVERAGE MISS LATENCY: 95.94 cycles

DRAM Statistics

Channel 0 RQ ROW_BUFFER_HIT:     531441
  ROW_BUFFER_MISS:    5098019
  AVG DBUS CONGESTED CYCLE: 15.65
Channel 0 WQ ROW_BUFFER_HIT:     330490
  ROW_BUFFER_MISS:    1972723
  FULL:      92148
Channel 0 REFRESHES ISSUED:      44872
End: Fri Jul 17 04:40:30 PM UTC 2026
