Running ChampSim with config: dpc4/1C.fullBW.setdueling.json
Trace: traces/throttle/throttleTrace_S500B_T1B.champsimtrace.xz
Start: Mon Jul 20 09:30:07 AM UTC 2026
[VMEM] WARNING: physical memory size is smaller than virtual memory size.

*** ChampSim Multicore Out-of-Order Simulator ***
Warmup Instructions: 200000000
Simulation Instructions: 500000000
Number of CPUs: 1
Page size: 4096

Adaptive Next Line
Sampling size: 199.5 KB
Stats size: 9.05701 KB
Ongoing size: 0.71875 KB
Total size: 209.276 KB
 L1D Berti prefetcher
[Pythia] Set Dueling Filter Enabled
[SetDueling] Static assignment (set % 5)
[SetDueling] Starting tournament immediately
Off-chip DRAM Size: 64 GiB Channels: 1 Width: 64-bit Data Rate: 4807 MT/s
Heartbeat CPU 0 instructions: 10000002 cycles: 7222201 heartbeat IPC: 1.385 cumulative IPC: 1.385 (Simulation time: 00 hr 00 min 49 sec)
[SetDueling] Tournament results:
  NoPref: 16897/49349 = 0.342398
  PC: 1605/49214 = 0.0326127
  PC_Delta: 1430/49317 = 0.0289961
  PC|Delta: 1442/49122 = 0.0293555
  PC&Delta: 1755/49188 = 0.0356794
[SetDueling] Winner: PC_Delta
[SetDueling] Phase 1: Final
Heartbeat CPU 0 instructions: 20000003 cycles: 13361062 heartbeat IPC: 1.629 cumulative IPC: 1.497 (Simulation time: 00 hr 01 min 37 sec)
Heartbeat CPU 0 instructions: 30000005 cycles: 19178159 heartbeat IPC: 1.719 cumulative IPC: 1.564 (Simulation time: 00 hr 02 min 23 sec)
Heartbeat CPU 0 instructions: 40000006 cycles: 25224980 heartbeat IPC: 1.654 cumulative IPC: 1.586 (Simulation time: 00 hr 03 min 11 sec)
Heartbeat CPU 0 instructions: 50000009 cycles: 31013633 heartbeat IPC: 1.728 cumulative IPC: 1.612 (Simulation time: 00 hr 03 min 59 sec)
Heartbeat CPU 0 instructions: 60000015 cycles: 37103388 heartbeat IPC: 1.642 cumulative IPC: 1.617 (Simulation time: 00 hr 04 min 47 sec)
Heartbeat CPU 0 instructions: 70000016 cycles: 43034881 heartbeat IPC: 1.686 cumulative IPC: 1.627 (Simulation time: 00 hr 05 min 34 sec)
Heartbeat CPU 0 instructions: 80000020 cycles: 49143135 heartbeat IPC: 1.637 cumulative IPC: 1.628 (Simulation time: 00 hr 06 min 22 sec)
Heartbeat CPU 0 instructions: 90000023 cycles: 55051599 heartbeat IPC: 1.692 cumulative IPC: 1.635 (Simulation time: 00 hr 07 min 09 sec)
Heartbeat CPU 0 instructions: 100000030 cycles: 60865088 heartbeat IPC: 1.72 cumulative IPC: 1.643 (Simulation time: 00 hr 07 min 57 sec)
Heartbeat CPU 0 instructions: 110000032 cycles: 67001857 heartbeat IPC: 1.63 cumulative IPC: 1.642 (Simulation time: 00 hr 08 min 45 sec)
Heartbeat CPU 0 instructions: 120000032 cycles: 73069128 heartbeat IPC: 1.648 cumulative IPC: 1.642 (Simulation time: 00 hr 09 min 34 sec)
Heartbeat CPU 0 instructions: 130000037 cycles: 78893549 heartbeat IPC: 1.717 cumulative IPC: 1.648 (Simulation time: 00 hr 10 min 21 sec)
Heartbeat CPU 0 instructions: 140000039 cycles: 85822376 heartbeat IPC: 1.443 cumulative IPC: 1.631 (Simulation time: 00 hr 11 min 13 sec)
Heartbeat CPU 0 instructions: 150000046 cycles: 90331242 heartbeat IPC: 2.218 cumulative IPC: 1.661 (Simulation time: 00 hr 11 min 56 sec)
Heartbeat CPU 0 instructions: 160000046 cycles: 95944525 heartbeat IPC: 1.781 cumulative IPC: 1.668 (Simulation time: 00 hr 12 min 41 sec)
Heartbeat CPU 0 instructions: 170000049 cycles: 102014954 heartbeat IPC: 1.647 cumulative IPC: 1.666 (Simulation time: 00 hr 13 min 30 sec)
Heartbeat CPU 0 instructions: 180000051 cycles: 109360411 heartbeat IPC: 1.361 cumulative IPC: 1.646 (Simulation time: 00 hr 14 min 22 sec)
Heartbeat CPU 0 instructions: 190000057 cycles: 117549915 heartbeat IPC: 1.221 cumulative IPC: 1.616 (Simulation time: 00 hr 15 min 19 sec)
Warmup finished CPU 0 instructions: 200000005 cycles: 124218317 cumulative IPC: 1.61 (Simulation time: 00 hr 16 min 11 sec)
Warmup complete CPU 0 instructions: 200000005 cycles: 124218317 cumulative IPC: 1.61 (Simulation time: 00 hr 16 min 11 sec)
Heartbeat CPU 0 instructions: 200000061 cycles: 124218324 heartbeat IPC: 1.5 cumulative IPC: 8 (Simulation time: 00 hr 16 min 11 sec)
Heartbeat CPU 0 instructions: 210000064 cycles: 135746297 heartbeat IPC: 0.8675 cumulative IPC: 0.8675 (Simulation time: 00 hr 17 min 17 sec)
Heartbeat CPU 0 instructions: 220000066 cycles: 147337322 heartbeat IPC: 0.8627 cumulative IPC: 0.8651 (Simulation time: 00 hr 18 min 29 sec)
Heartbeat CPU 0 instructions: 230000066 cycles: 155668614 heartbeat IPC: 1.2 cumulative IPC: 0.9539 (Simulation time: 00 hr 19 min 25 sec)
Heartbeat CPU 0 instructions: 240000072 cycles: 179008599 heartbeat IPC: 0.4284 cumulative IPC: 0.7301 (Simulation time: 00 hr 21 min 08 sec)
Heartbeat CPU 0 instructions: 250000072 cycles: 191814972 heartbeat IPC: 0.7809 cumulative IPC: 0.7397 (Simulation time: 00 hr 22 min 15 sec)
Heartbeat CPU 0 instructions: 260000072 cycles: 207542263 heartbeat IPC: 0.6358 cumulative IPC: 0.7201 (Simulation time: 00 hr 23 min 39 sec)
Heartbeat CPU 0 instructions: 270000078 cycles: 213234520 heartbeat IPC: 1.757 cumulative IPC: 0.7864 (Simulation time: 00 hr 24 min 33 sec)
Heartbeat CPU 0 instructions: 280000078 cycles: 220767282 heartbeat IPC: 1.328 cumulative IPC: 0.8286 (Simulation time: 00 hr 25 min 35 sec)
Heartbeat CPU 0 instructions: 290000078 cycles: 226890569 heartbeat IPC: 1.633 cumulative IPC: 0.8766 (Simulation time: 00 hr 26 min 29 sec)
Heartbeat CPU 0 instructions: 300000079 cycles: 242357495 heartbeat IPC: 0.6465 cumulative IPC: 0.8465 (Simulation time: 00 hr 27 min 55 sec)
Heartbeat CPU 0 instructions: 310000082 cycles: 249155694 heartbeat IPC: 1.471 cumulative IPC: 0.8804 (Simulation time: 00 hr 28 min 51 sec)
Heartbeat CPU 0 instructions: 320000089 cycles: 265007180 heartbeat IPC: 0.6309 cumulative IPC: 0.8523 (Simulation time: 00 hr 30 min 15 sec)
Heartbeat CPU 0 instructions: 330000089 cycles: 279331016 heartbeat IPC: 0.6981 cumulative IPC: 0.8381 (Simulation time: 00 hr 31 min 42 sec)
Heartbeat CPU 0 instructions: 340000095 cycles: 290897777 heartbeat IPC: 0.8645 cumulative IPC: 0.8399 (Simulation time: 00 hr 32 min 46 sec)
Heartbeat CPU 0 instructions: 350000097 cycles: 301214788 heartbeat IPC: 0.9693 cumulative IPC: 0.8475 (Simulation time: 00 hr 33 min 51 sec)
Heartbeat CPU 0 instructions: 360000100 cycles: 312882572 heartbeat IPC: 0.8571 cumulative IPC: 0.8481 (Simulation time: 00 hr 34 min 56 sec)
Heartbeat CPU 0 instructions: 370000103 cycles: 323257821 heartbeat IPC: 0.9638 cumulative IPC: 0.8541 (Simulation time: 00 hr 36 min 03 sec)
Heartbeat CPU 0 instructions: 380000104 cycles: 331926422 heartbeat IPC: 1.154 cumulative IPC: 0.8666 (Simulation time: 00 hr 37 min 07 sec)
Heartbeat CPU 0 instructions: 390000106 cycles: 341285085 heartbeat IPC: 1.069 cumulative IPC: 0.8753 (Simulation time: 00 hr 38 min 10 sec)
Heartbeat CPU 0 instructions: 400000108 cycles: 348115599 heartbeat IPC: 1.464 cumulative IPC: 0.8933 (Simulation time: 00 hr 39 min 06 sec)
Heartbeat CPU 0 instructions: 410000110 cycles: 356485994 heartbeat IPC: 1.195 cumulative IPC: 0.9041 (Simulation time: 00 hr 40 min 02 sec)
Heartbeat CPU 0 instructions: 420000117 cycles: 367453234 heartbeat IPC: 0.9118 cumulative IPC: 0.9045 (Simulation time: 00 hr 41 min 05 sec)
Heartbeat CPU 0 instructions: 430000118 cycles: 376655106 heartbeat IPC: 1.087 cumulative IPC: 0.9111 (Simulation time: 00 hr 42 min 00 sec)
Heartbeat CPU 0 instructions: 440000123 cycles: 389085077 heartbeat IPC: 0.8045 cumulative IPC: 0.9061 (Simulation time: 00 hr 43 min 11 sec)
Heartbeat CPU 0 instructions: 450000123 cycles: 396460575 heartbeat IPC: 1.356 cumulative IPC: 0.9183 (Simulation time: 00 hr 44 min 09 sec)
Heartbeat CPU 0 instructions: 460000126 cycles: 405083056 heartbeat IPC: 1.16 cumulative IPC: 0.9257 (Simulation time: 00 hr 45 min 10 sec)
Heartbeat CPU 0 instructions: 470000128 cycles: 411772028 heartbeat IPC: 1.495 cumulative IPC: 0.939 (Simulation time: 00 hr 46 min 07 sec)
Heartbeat CPU 0 instructions: 480000131 cycles: 420967815 heartbeat IPC: 1.087 cumulative IPC: 0.9436 (Simulation time: 00 hr 47 min 11 sec)
Heartbeat CPU 0 instructions: 490000138 cycles: 427314574 heartbeat IPC: 1.576 cumulative IPC: 0.9568 (Simulation time: 00 hr 48 min 02 sec)
Heartbeat CPU 0 instructions: 500000138 cycles: 439038029 heartbeat IPC: 0.853 cumulative IPC: 0.9529 (Simulation time: 00 hr 49 min 10 sec)
Heartbeat CPU 0 instructions: 510000145 cycles: 447846210 heartbeat IPC: 1.135 cumulative IPC: 0.9579 (Simulation time: 00 hr 50 min 04 sec)
Heartbeat CPU 0 instructions: 520000150 cycles: 456787340 heartbeat IPC: 1.118 cumulative IPC: 0.9622 (Simulation time: 00 hr 50 min 59 sec)
Heartbeat CPU 0 instructions: 530000152 cycles: 468518788 heartbeat IPC: 0.8524 cumulative IPC: 0.9585 (Simulation time: 00 hr 52 min 11 sec)
Heartbeat CPU 0 instructions: 540000153 cycles: 478109342 heartbeat IPC: 1.043 cumulative IPC: 0.9607 (Simulation time: 00 hr 53 min 18 sec)
Heartbeat CPU 0 instructions: 550000153 cycles: 484768422 heartbeat IPC: 1.502 cumulative IPC: 0.9707 (Simulation time: 00 hr 54 min 14 sec)
Heartbeat CPU 0 instructions: 560000159 cycles: 491361579 heartbeat IPC: 1.517 cumulative IPC: 0.9805 (Simulation time: 00 hr 55 min 11 sec)
Heartbeat CPU 0 instructions: 570000161 cycles: 500610793 heartbeat IPC: 1.081 cumulative IPC: 0.983 (Simulation time: 00 hr 56 min 13 sec)
Heartbeat CPU 0 instructions: 580000167 cycles: 506981670 heartbeat IPC: 1.57 cumulative IPC: 0.9928 (Simulation time: 00 hr 57 min 05 sec)
Heartbeat CPU 0 instructions: 590000174 cycles: 520162733 heartbeat IPC: 0.7587 cumulative IPC: 0.985 (Simulation time: 00 hr 58 min 15 sec)
Heartbeat CPU 0 instructions: 600000177 cycles: 528237703 heartbeat IPC: 1.238 cumulative IPC: 0.9901 (Simulation time: 00 hr 59 min 08 sec)
Heartbeat CPU 0 instructions: 610000177 cycles: 537849382 heartbeat IPC: 1.04 cumulative IPC: 0.9912 (Simulation time: 01 hr 00 min 05 sec)
Heartbeat CPU 0 instructions: 620000182 cycles: 547143752 heartbeat IPC: 1.076 cumulative IPC: 0.9931 (Simulation time: 01 hr 00 min 59 sec)
Heartbeat CPU 0 instructions: 630000188 cycles: 556232541 heartbeat IPC: 1.1 cumulative IPC: 0.9953 (Simulation time: 01 hr 01 min 54 sec)
Heartbeat CPU 0 instructions: 640000193 cycles: 566079661 heartbeat IPC: 1.016 cumulative IPC: 0.9958 (Simulation time: 01 hr 02 min 50 sec)
Heartbeat CPU 0 instructions: 650000193 cycles: 575569915 heartbeat IPC: 1.054 cumulative IPC: 0.997 (Simulation time: 01 hr 03 min 48 sec)
Heartbeat CPU 0 instructions: 660000198 cycles: 584491204 heartbeat IPC: 1.121 cumulative IPC: 0.9994 (Simulation time: 01 hr 04 min 41 sec)
Heartbeat CPU 0 instructions: 670000198 cycles: 594347467 heartbeat IPC: 1.015 cumulative IPC: 0.9997 (Simulation time: 01 hr 05 min 36 sec)
Heartbeat CPU 0 instructions: 680000198 cycles: 603642316 heartbeat IPC: 1.076 cumulative IPC: 1.001 (Simulation time: 01 hr 06 min 31 sec)
Heartbeat CPU 0 instructions: 690000201 cycles: 612609444 heartbeat IPC: 1.115 cumulative IPC: 1.003 (Simulation time: 01 hr 07 min 26 sec)
Simulation finished CPU 0 instructions: 500000006 cycles: 497493232 cumulative IPC: 1.005 (Simulation time: 01 hr 08 min 22 sec)
Simulation complete CPU 0 instructions: 500000006 cycles: 497493232 cumulative IPC: 1.005 (Simulation time: 01 hr 08 min 22 sec)

ChampSim completed all CPUs

=== Simulation ===
CPU 0 runs traces/throttle/throttleTrace_S500B_T1B.champsimtrace.xz

Region of Interest Statistics

CPU 0 cumulative IPC: 1.005 instructions: 500000006 cycles: 497493232
CPU 0 Branch Prediction Accuracy: 97.26% MPKI: 2.551 Average ROB Occupancy at Mispredict: 74.21
Branch type MPKI
BRANCH_DIRECT_JUMP: 0.007252
BRANCH_INDIRECT: 0.002662
BRANCH_CONDITIONAL: 2.503
BRANCH_DIRECT_CALL: 0.01924
BRANCH_INDIRECT_CALL: 0.006388
BRANCH_RETURN: 0.01276
IDLE Cycles
Fetch Idle Cycles 388709043
Fetch Blocked Cycles 42040600
IFetch Failed Events 120964
Fetch Buffer Not Empty 94020966
Decode Idle Cycles 337212183
Dispatch Idle Cycles 353372837
Execute Idle Cycles 314852823
Execute None Cycles 305297289
Execute Head Not Ready Cycles 360635
Execute Head Not Completed Cycles 296737352
Execute Pending Cycles 303457383
Execute Load Blocked Cycles 296737352
Scheduler Idle Cycles 392871312
Scheduler None Cycles 350525777
ROB Idle Cycles 358790397
LQ Full Events 16807758
SQ Full Events 173731953

cpu0->LLC TOTAL        ACCESS:   11638351 HIT:    5061573 MISS:    6576778 MISS_MERGE:      10304
cpu0->LLC LOAD         ACCESS:     253601 HIT:      91838 MISS:     161763 MISS_MERGE:         21
cpu0->LLC RFO          ACCESS:    2231104 HIT:     846324 MISS:    1384780 MISS_MERGE:          7
cpu0->LLC PREFETCH     ACCESS:    5980023 HIT:    2418017 MISS:    3562006 MISS_MERGE:      10276
cpu0->LLC WRITE        ACCESS:    3155193 HIT:    1704882 MISS:    1450311 MISS_MERGE:          0
cpu0->LLC TRANSLATION  ACCESS:      18430 HIT:        512 MISS:      17918 MISS_MERGE:          0
cpu0->LLC PREFETCH REQUESTED:      15472 ISSUED:      15472 USEFUL:       1771 USELESS:       4953
cpu0->LLC AVERAGE MISS LATENCY: 164.4 cycles
cpu0->cpu0_DTLB TOTAL        ACCESS:  311380744 HIT:  310112755 MISS:    1267989 MISS_MERGE:     872910
cpu0->cpu0_DTLB LOAD         ACCESS:  311380744 HIT:  310112755 MISS:    1267989 MISS_MERGE:     872910
cpu0->cpu0_DTLB RFO          ACCESS:          0 HIT:          0 MISS:          0 MISS_MERGE:          0
cpu0->cpu0_DTLB PREFETCH     ACCESS:          0 HIT:          0 MISS:          0 MISS_MERGE:          0
cpu0->cpu0_DTLB WRITE        ACCESS:          0 HIT:          0 MISS:          0 MISS_MERGE:          0
cpu0->cpu0_DTLB TRANSLATION  ACCESS:          0 HIT:          0 MISS:          0 MISS_MERGE:          0
cpu0->cpu0_DTLB PREFETCH REQUESTED:          0 ISSUED:          0 USEFUL:          0 USELESS:          0
cpu0->cpu0_DTLB AVERAGE MISS LATENCY: 18.56 cycles
cpu0->cpu0_ITLB TOTAL        ACCESS:  124480688 HIT:  124451725 MISS:      28963 MISS_MERGE:      13174
cpu0->cpu0_ITLB LOAD         ACCESS:  124480688 HIT:  124451725 MISS:      28963 MISS_MERGE:      13174
cpu0->cpu0_ITLB RFO          ACCESS:          0 HIT:          0 MISS:          0 MISS_MERGE:          0
cpu0->cpu0_ITLB PREFETCH     ACCESS:          0 HIT:          0 MISS:          0 MISS_MERGE:          0
cpu0->cpu0_ITLB WRITE        ACCESS:          0 HIT:          0 MISS:          0 MISS_MERGE:          0
cpu0->cpu0_ITLB TRANSLATION  ACCESS:          0 HIT:          0 MISS:          0 MISS_MERGE:          0
cpu0->cpu0_ITLB PREFETCH REQUESTED:          0 ISSUED:          0 USEFUL:          0 USELESS:          0
cpu0->cpu0_ITLB AVERAGE MISS LATENCY: 102.8 cycles
cpu0->cpu0_L1D TOTAL        ACCESS:  313039663 HIT:  253524642 MISS:   59515021 MISS_MERGE:   41021601
cpu0->cpu0_L1D LOAD         ACCESS:  183545113 HIT:  175997482 MISS:    7547631 MISS_MERGE:    5487825
cpu0->cpu0_L1D RFO          ACCESS:          0 HIT:          0 MISS:          0 MISS_MERGE:          0
cpu0->cpu0_L1D PREFETCH     ACCESS:   14300307 HIT:     928609 MISS:   13371698 MISS_MERGE:     177299
cpu0->cpu0_L1D WRITE        ACCESS:  115046958 HIT:   76477203 MISS:   38569755 MISS_MERGE:   35356118
cpu0->cpu0_L1D TRANSLATION  ACCESS:     147285 HIT:     121348 MISS:      25937 MISS_MERGE:        359
cpu0->cpu0_L1D PREFETCH REQUESTED:   14451558 ISSUED:   14300300 USEFUL:   12745967 USELESS:     448430
cpu0->cpu0_L1D AVERAGE MISS LATENCY: 110.4 cycles
cpu0->cpu0_L1I TOTAL        ACCESS:  124896953 HIT:  124839722 MISS:      57231 MISS_MERGE:      11050
cpu0->cpu0_L1I LOAD         ACCESS:  124896953 HIT:  124839722 MISS:      57231 MISS_MERGE:      11050
cpu0->cpu0_L1I RFO          ACCESS:          0 HIT:          0 MISS:          0 MISS_MERGE:          0
cpu0->cpu0_L1I PREFETCH     ACCESS:          0 HIT:          0 MISS:          0 MISS_MERGE:          0
cpu0->cpu0_L1I WRITE        ACCESS:          0 HIT:          0 MISS:          0 MISS_MERGE:          0
cpu0->cpu0_L1I TRANSLATION  ACCESS:          0 HIT:          0 MISS:          0 MISS_MERGE:          0
cpu0->cpu0_L1I PREFETCH REQUESTED:          0 ISSUED:          0 USEFUL:          0 USELESS:          0
cpu0->cpu0_L1I AVERAGE MISS LATENCY: 170.2 cycles
cpu0->cpu0_L2C TOTAL        ACCESS:   88297154 HIT:   74408138 MISS:   13889016 MISS_MERGE:    5421321
cpu0->cpu0_L2C LOAD         ACCESS:    2105987 HIT:    1769201 MISS:     336786 MISS_MERGE:      83185
cpu0->cpu0_L2C RFO          ACCESS:    3213637 HIT:     982422 MISS:    2231215 MISS_MERGE:        111
cpu0->cpu0_L2C PREFETCH     ACCESS:   75738497 HIT:   64435921 MISS:   11302576 MISS_MERGE:    5338025
cpu0->cpu0_L2C WRITE        ACCESS:    7213455 HIT:    7213446 MISS:          9 MISS_MERGE:          0
cpu0->cpu0_L2C TRANSLATION  ACCESS:      25578 HIT:       7148 MISS:      18430 MISS_MERGE:          0
cpu0->cpu0_L2C PREFETCH REQUESTED:   64098468 ISSUED:   62544107 USEFUL:    4970862 USELESS:     585111
cpu0->cpu0_L2C AVERAGE MISS LATENCY: 209.5 cycles
cpu0->cpu0_STLB TOTAL        ACCESS:     410868 HIT:     337699 MISS:      73169 MISS_MERGE:          0
cpu0->cpu0_STLB LOAD         ACCESS:     410868 HIT:     337699 MISS:      73169 MISS_MERGE:          0
cpu0->cpu0_STLB RFO          ACCESS:          0 HIT:          0 MISS:          0 MISS_MERGE:          0
cpu0->cpu0_STLB PREFETCH     ACCESS:          0 HIT:          0 MISS:          0 MISS_MERGE:          0
cpu0->cpu0_STLB WRITE        ACCESS:          0 HIT:          0 MISS:          0 MISS_MERGE:          0
cpu0->cpu0_STLB TRANSLATION  ACCESS:          0 HIT:          0 MISS:          0 MISS_MERGE:          0
cpu0->cpu0_STLB PREFETCH REQUESTED:          0 ISSUED:          0 USEFUL:          0 USELESS:          0
cpu0->cpu0_STLB AVERAGE MISS LATENCY: 93.3 cycles

DRAM Statistics

Channel 0 RQ ROW_BUFFER_HIT:     746838
  ROW_BUFFER_MISS:    4366864
  AVG DBUS CONGESTED CYCLE: 15.31
Channel 0 WQ ROW_BUFFER_HIT:     201897
  ROW_BUFFER_MISS:    1444238
  FULL:     189820
Channel 0 REFRESHES ISSUED:      41455
[SetDueling] === Final Statistics ===
  Winner: PC_Delta
  NoPref: miss_ratio=0.342398 (acc=49349, miss=16897)
  PC: miss_ratio=0.0326127 (acc=49214, miss=1605)
  PC_Delta: miss_ratio=0.0289961 (acc=49317, miss=1430)
  PC|Delta: miss_ratio=0.0293555 (acc=49122, miss=1442)
  PC&Delta: miss_ratio=0.0356794 (acc=49188, miss=1755)
End: Mon Jul 20 10:38:29 AM UTC 2026
