Running ChampSim with config: dpc4/1C.fullBW.bertigo.json
Trace: traces/motorBike/motorBikeTrace_S500B_T1B.champsimtrace.xz
Start: Mon Jul 20 08:55:25 AM UTC 2026
[VMEM] WARNING: physical memory size is smaller than virtual memory size.
Region-Bitmap Prefetch Filter
  Sets: 1, Ways: 1360 (1360 entries)
  Tag bits: 29, Bitmap: 64 bits/entry, PLRU: 1360 bits/set
  Storage: ~14450 bytes

*** ChampSim Multicore Out-of-Order Simulator ***
Warmup Instructions: 200000000
Simulation Instructions: 500000000
Number of CPUs: 1
Page size: 4096

Adaptive Next Line
Sampling size: 199.5 KB
Stats size: 9.05701 KB
Ongoing size: 0.71875 KB
Total size: 209.276 KB
BertiGo Prefetcher
BertiGo HASH ENTANGLING
BertiGo IP MASK ffff
BertiGo L1D Conf: 10 L2C: 6 L2R: 4
BertiGo Parameters
  SIZES: BERTI_TABLE_SIZE=64 BERTI_TABLE_DELTA_SIZE=16 PC_PATH_HISTORY_SIZE=4
  HISTORY: SETS=48 WAYS=32
  MASKS: SIZE_IP_MASK=64 IP_MASK=0xffff TIME_MASK=0xffff LAT_MASK=0xfff ADDR_MASK=0xffffff TABLE_SET_MASK=0x7 DELTA_MASK=12
  CONFIDENCE: MAX=16 INC=1 INIT=1 L1=10 L2=6 L2R=4 MIDDLE_L1=14 MIDDLE_L2=12 LAUNCH_MIDDLE_CONF=8
  LIMITS:  MSHR_LIMIT=70
[Pythia] Set Dueling Filter Enabled
[SetDueling] Static assignment (set % 5)
[SetDueling] Starting tournament immediately
Off-chip DRAM Size: 64 GiB Channels: 1 Width: 64-bit Data Rate: 4807 MT/s
Heartbeat CPU 0 instructions: 10000002 cycles: 5617905 heartbeat IPC: 1.78 cumulative IPC: 1.78 (Simulation time: 00 hr 01 min 11 sec)
[SetDueling] Tournament results:
  NoPref: 85501/108349 = 0.789126
  PC: 21481/108295 = 0.198356
  PC_Delta: 22303/107864 = 0.20677
  PC|Delta: 22595/107685 = 0.209825
  PC&Delta: 22950/107826 = 0.212843
[SetDueling] Winner: PC
[SetDueling] Phase 1: Final
Heartbeat CPU 0 instructions: 20000003 cycles: 11060687 heartbeat IPC: 1.837 cumulative IPC: 1.808 (Simulation time: 00 hr 02 min 18 sec)
Heartbeat CPU 0 instructions: 30000003 cycles: 24019039 heartbeat IPC: 0.7717 cumulative IPC: 1.249 (Simulation time: 00 hr 03 min 51 sec)
Heartbeat CPU 0 instructions: 40000009 cycles: 27720159 heartbeat IPC: 2.702 cumulative IPC: 1.443 (Simulation time: 00 hr 04 min 40 sec)
Heartbeat CPU 0 instructions: 50000016 cycles: 31376596 heartbeat IPC: 2.735 cumulative IPC: 1.594 (Simulation time: 00 hr 05 min 27 sec)
Heartbeat CPU 0 instructions: 60000018 cycles: 36508206 heartbeat IPC: 1.949 cumulative IPC: 1.643 (Simulation time: 00 hr 06 min 35 sec)
Heartbeat CPU 0 instructions: 70000023 cycles: 41722137 heartbeat IPC: 1.918 cumulative IPC: 1.678 (Simulation time: 00 hr 07 min 39 sec)
Heartbeat CPU 0 instructions: 80000029 cycles: 54544726 heartbeat IPC: 0.7799 cumulative IPC: 1.467 (Simulation time: 00 hr 09 min 11 sec)
Heartbeat CPU 0 instructions: 90000032 cycles: 58290192 heartbeat IPC: 2.67 cumulative IPC: 1.544 (Simulation time: 00 hr 10 min 02 sec)
Heartbeat CPU 0 instructions: 100000032 cycles: 61931152 heartbeat IPC: 2.747 cumulative IPC: 1.615 (Simulation time: 00 hr 10 min 49 sec)
Heartbeat CPU 0 instructions: 110000035 cycles: 66808795 heartbeat IPC: 2.05 cumulative IPC: 1.646 (Simulation time: 00 hr 11 min 56 sec)
Heartbeat CPU 0 instructions: 120000037 cycles: 72039882 heartbeat IPC: 1.912 cumulative IPC: 1.666 (Simulation time: 00 hr 13 min 01 sec)
Heartbeat CPU 0 instructions: 130000037 cycles: 83861364 heartbeat IPC: 0.8459 cumulative IPC: 1.55 (Simulation time: 00 hr 14 min 28 sec)
Heartbeat CPU 0 instructions: 140000040 cycles: 88845733 heartbeat IPC: 2.006 cumulative IPC: 1.576 (Simulation time: 00 hr 15 min 25 sec)
Heartbeat CPU 0 instructions: 150000046 cycles: 92478266 heartbeat IPC: 2.753 cumulative IPC: 1.622 (Simulation time: 00 hr 16 min 13 sec)
Heartbeat CPU 0 instructions: 160000052 cycles: 97109049 heartbeat IPC: 2.159 cumulative IPC: 1.648 (Simulation time: 00 hr 17 min 16 sec)
Heartbeat CPU 0 instructions: 170000054 cycles: 102351492 heartbeat IPC: 1.908 cumulative IPC: 1.661 (Simulation time: 00 hr 18 min 23 sec)
Heartbeat CPU 0 instructions: 180000058 cycles: 112012945 heartbeat IPC: 1.035 cumulative IPC: 1.607 (Simulation time: 00 hr 19 min 40 sec)
Heartbeat CPU 0 instructions: 190000065 cycles: 119387104 heartbeat IPC: 1.356 cumulative IPC: 1.591 (Simulation time: 00 hr 20 min 50 sec)
Warmup finished CPU 0 instructions: 200000005 cycles: 123025909 cumulative IPC: 1.626 (Simulation time: 00 hr 21 min 38 sec)
Warmup complete CPU 0 instructions: 200000005 cycles: 123025909 cumulative IPC: 1.626 (Simulation time: 00 hr 21 min 38 sec)
Heartbeat CPU 0 instructions: 200000067 cycles: 123026172 heartbeat IPC: 2.748 cumulative IPC: 0.2061 (Simulation time: 00 hr 21 min 38 sec)
Heartbeat CPU 0 instructions: 210000071 cycles: 130811185 heartbeat IPC: 1.285 cumulative IPC: 1.284 (Simulation time: 00 hr 22 min 55 sec)
Heartbeat CPU 0 instructions: 220000072 cycles: 138424632 heartbeat IPC: 1.313 cumulative IPC: 1.299 (Simulation time: 00 hr 24 min 17 sec)
Heartbeat CPU 0 instructions: 230000074 cycles: 157329869 heartbeat IPC: 0.529 cumulative IPC: 0.8745 (Simulation time: 00 hr 26 min 30 sec)
Heartbeat CPU 0 instructions: 240000075 cycles: 184124422 heartbeat IPC: 0.3732 cumulative IPC: 0.6547 (Simulation time: 00 hr 29 min 41 sec)
Heartbeat CPU 0 instructions: 250000075 cycles: 195986705 heartbeat IPC: 0.843 cumulative IPC: 0.6853 (Simulation time: 00 hr 31 min 43 sec)
Heartbeat CPU 0 instructions: 260000077 cycles: 203531435 heartbeat IPC: 1.325 cumulative IPC: 0.7453 (Simulation time: 00 hr 33 min 09 sec)
Heartbeat CPU 0 instructions: 270000083 cycles: 212145562 heartbeat IPC: 1.161 cumulative IPC: 0.7855 (Simulation time: 00 hr 34 min 40 sec)
Heartbeat CPU 0 instructions: 280000083 cycles: 220824616 heartbeat IPC: 1.152 cumulative IPC: 0.818 (Simulation time: 00 hr 36 min 07 sec)
Heartbeat CPU 0 instructions: 290000088 cycles: 229137580 heartbeat IPC: 1.203 cumulative IPC: 0.8482 (Simulation time: 00 hr 37 min 33 sec)
Heartbeat CPU 0 instructions: 300000093 cycles: 262003689 heartbeat IPC: 0.3043 cumulative IPC: 0.7195 (Simulation time: 00 hr 40 min 25 sec)
Heartbeat CPU 0 instructions: 310000095 cycles: 270016404 heartbeat IPC: 1.248 cumulative IPC: 0.7483 (Simulation time: 00 hr 41 min 26 sec)
Heartbeat CPU 0 instructions: 320000100 cycles: 276198893 heartbeat IPC: 1.617 cumulative IPC: 0.7834 (Simulation time: 00 hr 42 min 17 sec)
Heartbeat CPU 0 instructions: 330000104 cycles: 285296024 heartbeat IPC: 1.099 cumulative IPC: 0.8011 (Simulation time: 00 hr 43 min 46 sec)
Heartbeat CPU 0 instructions: 340000104 cycles: 292694962 heartbeat IPC: 1.352 cumulative IPC: 0.8251 (Simulation time: 00 hr 45 min 06 sec)
Heartbeat CPU 0 instructions: 350000104 cycles: 319464418 heartbeat IPC: 0.3736 cumulative IPC: 0.7636 (Simulation time: 00 hr 47 min 29 sec)
Heartbeat CPU 0 instructions: 360000104 cycles: 332160388 heartbeat IPC: 0.7877 cumulative IPC: 0.7651 (Simulation time: 00 hr 48 min 51 sec)
Heartbeat CPU 0 instructions: 370000105 cycles: 338444760 heartbeat IPC: 1.591 cumulative IPC: 0.7892 (Simulation time: 00 hr 49 min 41 sec)
Heartbeat CPU 0 instructions: 380000112 cycles: 347006546 heartbeat IPC: 1.168 cumulative IPC: 0.8036 (Simulation time: 00 hr 51 min 04 sec)
Heartbeat CPU 0 instructions: 390000114 cycles: 354779982 heartbeat IPC: 1.286 cumulative IPC: 0.8198 (Simulation time: 00 hr 52 min 26 sec)
Heartbeat CPU 0 instructions: 400000114 cycles: 375247403 heartbeat IPC: 0.4886 cumulative IPC: 0.793 (Simulation time: 00 hr 54 min 26 sec)
Heartbeat CPU 0 instructions: 410000114 cycles: 394208015 heartbeat IPC: 0.5274 cumulative IPC: 0.7744 (Simulation time: 00 hr 56 min 15 sec)
Heartbeat CPU 0 instructions: 420000116 cycles: 400680505 heartbeat IPC: 1.545 cumulative IPC: 0.7924 (Simulation time: 00 hr 57 min 07 sec)
Heartbeat CPU 0 instructions: 430000117 cycles: 408611341 heartbeat IPC: 1.261 cumulative IPC: 0.8054 (Simulation time: 00 hr 58 min 23 sec)
Heartbeat CPU 0 instructions: 440000121 cycles: 416703884 heartbeat IPC: 1.236 cumulative IPC: 0.8172 (Simulation time: 00 hr 59 min 47 sec)
Heartbeat CPU 0 instructions: 450000121 cycles: 435474249 heartbeat IPC: 0.5328 cumulative IPC: 0.8001 (Simulation time: 01 hr 01 min 44 sec)
Heartbeat CPU 0 instructions: 460000124 cycles: 455765334 heartbeat IPC: 0.4928 cumulative IPC: 0.7814 (Simulation time: 01 hr 03 min 38 sec)
Heartbeat CPU 0 instructions: 470000126 cycles: 462339032 heartbeat IPC: 1.521 cumulative IPC: 0.7957 (Simulation time: 01 hr 04 min 29 sec)
Heartbeat CPU 0 instructions: 480000127 cycles: 469707462 heartbeat IPC: 1.357 cumulative IPC: 0.8077 (Simulation time: 01 hr 05 min 39 sec)
Heartbeat CPU 0 instructions: 490000129 cycles: 478240834 heartbeat IPC: 1.172 cumulative IPC: 0.8164 (Simulation time: 01 hr 07 min 06 sec)
Heartbeat CPU 0 instructions: 500000129 cycles: 495631403 heartbeat IPC: 0.575 cumulative IPC: 0.8051 (Simulation time: 01 hr 09 min 01 sec)
Heartbeat CPU 0 instructions: 510000134 cycles: 517175376 heartbeat IPC: 0.4642 cumulative IPC: 0.7865 (Simulation time: 01 hr 11 min 00 sec)
Heartbeat CPU 0 instructions: 520000134 cycles: 524106199 heartbeat IPC: 1.443 cumulative IPC: 0.7978 (Simulation time: 01 hr 11 min 53 sec)
Heartbeat CPU 0 instructions: 530000139 cycles: 530955388 heartbeat IPC: 1.46 cumulative IPC: 0.809 (Simulation time: 01 hr 12 min 54 sec)
Heartbeat CPU 0 instructions: 540000139 cycles: 540230517 heartbeat IPC: 1.078 cumulative IPC: 0.8149 (Simulation time: 01 hr 14 min 27 sec)
Heartbeat CPU 0 instructions: 550000139 cycles: 551275285 heartbeat IPC: 0.9054 cumulative IPC: 0.8173 (Simulation time: 01 hr 15 min 56 sec)
Heartbeat CPU 0 instructions: 560000143 cycles: 578941608 heartbeat IPC: 0.3615 cumulative IPC: 0.7896 (Simulation time: 01 hr 18 min 21 sec)
Heartbeat CPU 0 instructions: 570000150 cycles: 586199367 heartbeat IPC: 1.378 cumulative IPC: 0.7988 (Simulation time: 01 hr 19 min 18 sec)
Heartbeat CPU 0 instructions: 580000155 cycles: 592459277 heartbeat IPC: 1.597 cumulative IPC: 0.8095 (Simulation time: 01 hr 20 min 09 sec)
Heartbeat CPU 0 instructions: 590000161 cycles: 601914411 heartbeat IPC: 1.058 cumulative IPC: 0.8144 (Simulation time: 01 hr 21 min 44 sec)
Heartbeat CPU 0 instructions: 600000167 cycles: 608650399 heartbeat IPC: 1.485 cumulative IPC: 0.8237 (Simulation time: 01 hr 22 min 59 sec)
Heartbeat CPU 0 instructions: 610000171 cycles: 640598711 heartbeat IPC: 0.313 cumulative IPC: 0.7922 (Simulation time: 01 hr 25 min 42 sec)
Heartbeat CPU 0 instructions: 620000173 cycles: 648106602 heartbeat IPC: 1.332 cumulative IPC: 0.7999 (Simulation time: 01 hr 26 min 40 sec)
Heartbeat CPU 0 instructions: 630000173 cycles: 654296134 heartbeat IPC: 1.616 cumulative IPC: 0.8094 (Simulation time: 01 hr 27 min 30 sec)
Heartbeat CPU 0 instructions: 640000178 cycles: 663656857 heartbeat IPC: 1.068 cumulative IPC: 0.8139 (Simulation time: 01 hr 29 min 04 sec)
Heartbeat CPU 0 instructions: 650000179 cycles: 670762784 heartbeat IPC: 1.407 cumulative IPC: 0.8216 (Simulation time: 01 hr 30 min 21 sec)
Heartbeat CPU 0 instructions: 660000179 cycles: 696678535 heartbeat IPC: 0.3859 cumulative IPC: 0.8019 (Simulation time: 01 hr 32 min 59 sec)
Heartbeat CPU 0 instructions: 670000184 cycles: 718357887 heartbeat IPC: 0.4613 cumulative IPC: 0.7895 (Simulation time: 01 hr 35 min 49 sec)
Heartbeat CPU 0 instructions: 680000191 cycles: 727879177 heartbeat IPC: 1.05 cumulative IPC: 0.7936 (Simulation time: 01 hr 37 min 26 sec)
Heartbeat CPU 0 instructions: 690000196 cycles: 736313681 heartbeat IPC: 1.186 cumulative IPC: 0.799 (Simulation time: 01 hr 38 min 55 sec)
Simulation finished CPU 0 instructions: 500000007 cycles: 620962924 cumulative IPC: 0.8052 (Simulation time: 01 hr 40 min 15 sec)
Simulation complete CPU 0 instructions: 500000007 cycles: 620962924 cumulative IPC: 0.8052 (Simulation time: 01 hr 40 min 15 sec)

ChampSim completed all CPUs

=== Simulation ===
CPU 0 runs traces/motorBike/motorBikeTrace_S500B_T1B.champsimtrace.xz

Region of Interest Statistics

CPU 0 cumulative IPC: 0.8052 instructions: 500000007 cycles: 620962924
CPU 0 Branch Prediction Accuracy: 91.53% MPKI: 7.772 Average ROB Occupancy at Mispredict: 66.12
Branch type MPKI
BRANCH_DIRECT_JUMP: 0.000588
BRANCH_INDIRECT: 0.000136
BRANCH_CONDITIONAL: 7.769
BRANCH_DIRECT_CALL: 0.000728
BRANCH_INDIRECT_CALL: 0.000168
BRANCH_RETURN: 0.000816
IDLE Cycles
Fetch Idle Cycles 527472074
Fetch Blocked Cycles 90651162
IFetch Failed Events 2637
Fetch Buffer Not Empty 105817889
Decode Idle Cycles 470535845
Dispatch Idle Cycles 483325597
Execute Idle Cycles 432378879
Execute None Cycles 431993402
Execute Head Not Ready Cycles 102901
Execute Head Not Completed Cycles 424694027
Execute Pending Cycles 431462354
Execute Load Blocked Cycles 424694027
Scheduler Idle Cycles 521566799
Scheduler None Cycles 458455494
ROB Idle Cycles 489341708
LQ Full Events 25736202
SQ Full Events 210299430

cpu0->LLC TOTAL        ACCESS:   24745472 HIT:    5566702 MISS:   19178770 MISS_MERGE:     304002
cpu0->LLC LOAD         ACCESS:     546967 HIT:     272989 MISS:     273978 MISS_MERGE:        292
cpu0->LLC RFO          ACCESS:    1933573 HIT:      13383 MISS:    1920190 MISS_MERGE:          0
cpu0->LLC PREFETCH     ACCESS:   17449789 HIT:    3172615 MISS:   14277174 MISS_MERGE:     303710
cpu0->LLC WRITE        ACCESS:    4775598 HIT:    2106652 MISS:    2668946 MISS_MERGE:          0
cpu0->LLC TRANSLATION  ACCESS:      39545 HIT:       1063 MISS:      38482 MISS_MERGE:          0
cpu0->LLC PREFETCH REQUESTED:     599158 ISSUED:     598920 USEFUL:     216787 USELESS:      90501
cpu0->LLC AVERAGE MISS LATENCY: 182.3 cycles
cpu0->cpu0_DTLB TOTAL        ACCESS:  329194065 HIT:  327150837 MISS:    2043228 MISS_MERGE:     814591
cpu0->cpu0_DTLB LOAD         ACCESS:  329194065 HIT:  327150837 MISS:    2043228 MISS_MERGE:     814591
cpu0->cpu0_DTLB RFO          ACCESS:          0 HIT:          0 MISS:          0 MISS_MERGE:          0
cpu0->cpu0_DTLB PREFETCH     ACCESS:          0 HIT:          0 MISS:          0 MISS_MERGE:          0
cpu0->cpu0_DTLB WRITE        ACCESS:          0 HIT:          0 MISS:          0 MISS_MERGE:          0
cpu0->cpu0_DTLB TRANSLATION  ACCESS:          0 HIT:          0 MISS:          0 MISS_MERGE:          0
cpu0->cpu0_DTLB PREFETCH REQUESTED:          0 ISSUED:          0 USEFUL:          0 USELESS:          0
cpu0->cpu0_DTLB AVERAGE MISS LATENCY: 22.92 cycles
cpu0->cpu0_ITLB TOTAL        ACCESS:  103631273 HIT:  103630745 MISS:        528 MISS_MERGE:        229
cpu0->cpu0_ITLB LOAD         ACCESS:  103631273 HIT:  103630745 MISS:        528 MISS_MERGE:        229
cpu0->cpu0_ITLB RFO          ACCESS:          0 HIT:          0 MISS:          0 MISS_MERGE:          0
cpu0->cpu0_ITLB PREFETCH     ACCESS:          0 HIT:          0 MISS:          0 MISS_MERGE:          0
cpu0->cpu0_ITLB WRITE        ACCESS:          0 HIT:          0 MISS:          0 MISS_MERGE:          0
cpu0->cpu0_ITLB TRANSLATION  ACCESS:          0 HIT:          0 MISS:          0 MISS_MERGE:          0
cpu0->cpu0_ITLB PREFETCH REQUESTED:          0 ISSUED:          0 USEFUL:          0 USELESS:          0
cpu0->cpu0_ITLB AVERAGE MISS LATENCY: 319.5 cycles
cpu0->cpu0_L1D TOTAL        ACCESS:  330237012 HIT:  245274819 MISS:   84962193 MISS_MERGE:   54842267
cpu0->cpu0_L1D LOAD         ACCESS:  207184566 HIT:  183652838 MISS:   23531728 MISS_MERGE:   13016954
cpu0->cpu0_L1D RFO          ACCESS:          0 HIT:          0 MISS:          0 MISS_MERGE:          0
cpu0->cpu0_L1D PREFETCH     ACCESS:   26925028 HIT:    9210628 MISS:   17714400 MISS_MERGE:     138288
cpu0->cpu0_L1D WRITE        ACCESS:   95648540 HIT:   52015568 MISS:   43632972 MISS_MERGE:   41686102
cpu0->cpu0_L1D TRANSLATION  ACCESS:     478878 HIT:     395785 MISS:      83093 MISS_MERGE:        923
cpu0->cpu0_L1D PREFETCH REQUESTED:  277837828 ISSUED:   26925028 USEFUL:    7699948 USELESS:     328575
cpu0->cpu0_L1D AVERAGE MISS LATENCY: 101.2 cycles
cpu0->cpu0_L1I TOTAL        ACCESS:  104101824 HIT:  104100653 MISS:       1171 MISS_MERGE:         84
cpu0->cpu0_L1I LOAD         ACCESS:  104101824 HIT:  104100653 MISS:       1171 MISS_MERGE:         84
cpu0->cpu0_L1I RFO          ACCESS:          0 HIT:          0 MISS:          0 MISS_MERGE:          0
cpu0->cpu0_L1I PREFETCH     ACCESS:          0 HIT:          0 MISS:          0 MISS_MERGE:          0
cpu0->cpu0_L1I WRITE        ACCESS:          0 HIT:          0 MISS:          0 MISS_MERGE:          0
cpu0->cpu0_L1I TRANSLATION  ACCESS:          0 HIT:          0 MISS:          0 MISS_MERGE:          0
cpu0->cpu0_L1I PREFETCH REQUESTED:          0 ISSUED:          0 USEFUL:          0 USELESS:          0
cpu0->cpu0_L1I AVERAGE MISS LATENCY: 206.2 cycles
cpu0->cpu0_L2C TOTAL        ACCESS:  115640568 HIT:   69867740 MISS:   45772828 MISS_MERGE:   26401874
cpu0->cpu0_L2C LOAD         ACCESS:   10515861 HIT:    9567756 MISS:     948105 MISS_MERGE:     401138
cpu0->cpu0_L2C RFO          ACCESS:    1946870 HIT:      13292 MISS:    1933578 MISS_MERGE:          5
cpu0->cpu0_L2C PREFETCH     ACCESS:   97076008 HIT:   54224408 MISS:   42851600 MISS_MERGE:   26000731
cpu0->cpu0_L2C WRITE        ACCESS:    6019659 HIT:    6019659 MISS:          0 MISS_MERGE:          0
cpu0->cpu0_L2C TRANSLATION  ACCESS:      82170 HIT:      42625 MISS:      39545 MISS_MERGE:          0
cpu0->cpu0_L2C PREFETCH REQUESTED:   97498880 ISSUED:   79499921 USEFUL:   11456472 USELESS:    2675682
cpu0->cpu0_L2C AVERAGE MISS LATENCY: 341.7 cycles
cpu0->cpu0_STLB TOTAL        ACCESS:    1228936 HIT:     990157 MISS:     238779 MISS_MERGE:          0
cpu0->cpu0_STLB LOAD         ACCESS:    1228936 HIT:     990157 MISS:     238779 MISS_MERGE:          0
cpu0->cpu0_STLB RFO          ACCESS:          0 HIT:          0 MISS:          0 MISS_MERGE:          0
cpu0->cpu0_STLB PREFETCH     ACCESS:          0 HIT:          0 MISS:          0 MISS_MERGE:          0
cpu0->cpu0_STLB WRITE        ACCESS:          0 HIT:          0 MISS:          0 MISS_MERGE:          0
cpu0->cpu0_STLB TRANSLATION  ACCESS:          0 HIT:          0 MISS:          0 MISS_MERGE:          0
cpu0->cpu0_STLB PREFETCH REQUESTED:          0 ISSUED:          0 USEFUL:          0 USELESS:          0
cpu0->cpu0_STLB AVERAGE MISS LATENCY: 91.58 cycles

DRAM Statistics

Channel 0 RQ ROW_BUFFER_HIT:     538675
  ROW_BUFFER_MISS:   15662648
  AVG DBUS CONGESTED CYCLE: 11.45
Channel 0 WQ ROW_BUFFER_HIT:     329607
  ROW_BUFFER_MISS:    2751632
  FULL:     133488
Channel 0 REFRESHES ISSUED:      51744
BERTI TO_L1: 940907006 TO_L2: 205780276 TO_L2_BC_MSHR: 48339993
BERTI AVG_LAT: 57.7456 NUM_TRACK_LATENCY: 25579173 NUM_CANT_TRACK_LATENCY: 519
BERTI CROSS_PAGE 507702212 NO_CROSS_PAGE: 2915655187
BERTI FOUND_BERTI: 0 NO_FOUND_BERTI: 0
BERTI AVERAGE_ISSUED: 1.41432
BLOOM FILTER FILTERED: 2276670117 PREFETCHED: 27844838
[SetDueling] === Final Statistics ===
  Winner: PC
  NoPref: miss_ratio=0.789126 (acc=108349, miss=85501)
  PC: miss_ratio=0.198356 (acc=108295, miss=21481)
  PC_Delta: miss_ratio=0.20677 (acc=107864, miss=22303)
  PC|Delta: miss_ratio=0.209825 (acc=107685, miss=22595)
  PC&Delta: miss_ratio=0.212843 (acc=107826, miss=22950)
End: Mon Jul 20 10:35:40 AM UTC 2026
