Running ChampSim with config: dpc4/1C.fullBW.setdueling.json
Trace: traces/motorBike/motorBikeTrace_S500B_T1B.champsimtrace.xz
Start: Mon Jul 20 09:29:03 AM UTC 2026
[VMEM] WARNING: physical memory size is smaller than virtual memory size.

*** ChampSim Multicore Out-of-Order Simulator ***
Warmup Instructions: 200000000
Simulation Instructions: 500000000
Number of CPUs: 1
Page size: 4096

Adaptive Next Line
Sampling size: 199.5 KB
Stats size: 9.05701 KB
Ongoing size: 0.71875 KB
Total size: 209.276 KB
 L1D Berti prefetcher
[Pythia] Set Dueling Filter Enabled
[SetDueling] Static assignment (set % 5)
[SetDueling] Starting tournament immediately
Off-chip DRAM Size: 64 GiB Channels: 1 Width: 64-bit Data Rate: 4807 MT/s
Heartbeat CPU 0 instructions: 10000002 cycles: 5588543 heartbeat IPC: 1.789 cumulative IPC: 1.789 (Simulation time: 00 hr 00 min 55 sec)
[SetDueling] Tournament results:
  NoPref: 85095/100367 = 0.847838
  PC: 9957/100329 = 0.0992435
  PC_Delta: 10057/100189 = 0.10038
  PC|Delta: 10041/100131 = 0.100279
  PC&Delta: 10292/100108 = 0.102809
[SetDueling] Winner: PC
[SetDueling] Phase 1: Final
Heartbeat CPU 0 instructions: 20000006 cycles: 10966530 heartbeat IPC: 1.859 cumulative IPC: 1.824 (Simulation time: 00 hr 01 min 49 sec)
Heartbeat CPU 0 instructions: 30000013 cycles: 23896112 heartbeat IPC: 0.7734 cumulative IPC: 1.255 (Simulation time: 00 hr 02 min 55 sec)
Heartbeat CPU 0 instructions: 40000017 cycles: 27588315 heartbeat IPC: 2.708 cumulative IPC: 1.45 (Simulation time: 00 hr 03 min 38 sec)
Heartbeat CPU 0 instructions: 50000020 cycles: 31239441 heartbeat IPC: 2.739 cumulative IPC: 1.601 (Simulation time: 00 hr 04 min 21 sec)
Heartbeat CPU 0 instructions: 60000026 cycles: 36369757 heartbeat IPC: 1.949 cumulative IPC: 1.65 (Simulation time: 00 hr 05 min 17 sec)
Heartbeat CPU 0 instructions: 70000026 cycles: 41583220 heartbeat IPC: 1.918 cumulative IPC: 1.683 (Simulation time: 00 hr 06 min 10 sec)
Heartbeat CPU 0 instructions: 80000028 cycles: 54405381 heartbeat IPC: 0.7799 cumulative IPC: 1.47 (Simulation time: 00 hr 07 min 16 sec)
Heartbeat CPU 0 instructions: 90000030 cycles: 58149853 heartbeat IPC: 2.671 cumulative IPC: 1.548 (Simulation time: 00 hr 07 min 59 sec)
Heartbeat CPU 0 instructions: 100000033 cycles: 61790185 heartbeat IPC: 2.747 cumulative IPC: 1.618 (Simulation time: 00 hr 08 min 39 sec)
Heartbeat CPU 0 instructions: 110000036 cycles: 66666874 heartbeat IPC: 2.051 cumulative IPC: 1.65 (Simulation time: 00 hr 09 min 31 sec)
Heartbeat CPU 0 instructions: 120000038 cycles: 71897330 heartbeat IPC: 1.912 cumulative IPC: 1.669 (Simulation time: 00 hr 10 min 25 sec)
Heartbeat CPU 0 instructions: 130000045 cycles: 83718461 heartbeat IPC: 0.8459 cumulative IPC: 1.553 (Simulation time: 00 hr 11 min 29 sec)
Heartbeat CPU 0 instructions: 140000046 cycles: 88702006 heartbeat IPC: 2.007 cumulative IPC: 1.578 (Simulation time: 00 hr 12 min 17 sec)
Heartbeat CPU 0 instructions: 150000050 cycles: 92334031 heartbeat IPC: 2.753 cumulative IPC: 1.625 (Simulation time: 00 hr 12 min 57 sec)
Heartbeat CPU 0 instructions: 160000050 cycles: 96963690 heartbeat IPC: 2.16 cumulative IPC: 1.65 (Simulation time: 00 hr 13 min 49 sec)
Heartbeat CPU 0 instructions: 170000051 cycles: 102205558 heartbeat IPC: 1.908 cumulative IPC: 1.663 (Simulation time: 00 hr 14 min 43 sec)
Heartbeat CPU 0 instructions: 180000058 cycles: 111866927 heartbeat IPC: 1.035 cumulative IPC: 1.609 (Simulation time: 00 hr 15 min 41 sec)
Heartbeat CPU 0 instructions: 190000065 cycles: 119240245 heartbeat IPC: 1.356 cumulative IPC: 1.593 (Simulation time: 00 hr 16 min 36 sec)
Warmup finished CPU 0 instructions: 200000000 cycles: 122878219 cumulative IPC: 1.628 (Simulation time: 00 hr 17 min 17 sec)
Warmup complete CPU 0 instructions: 200000000 cycles: 122878219 cumulative IPC: 1.628 (Simulation time: 00 hr 17 min 17 sec)
Heartbeat CPU 0 instructions: 200000072 cycles: 122878228 heartbeat IPC: 2.749 cumulative IPC: 8 (Simulation time: 00 hr 17 min 17 sec)
Heartbeat CPU 0 instructions: 210000074 cycles: 132143510 heartbeat IPC: 1.079 cumulative IPC: 1.079 (Simulation time: 00 hr 18 min 29 sec)
Heartbeat CPU 0 instructions: 220000075 cycles: 140375321 heartbeat IPC: 1.215 cumulative IPC: 1.143 (Simulation time: 00 hr 19 min 42 sec)
Heartbeat CPU 0 instructions: 230000080 cycles: 159723913 heartbeat IPC: 0.5168 cumulative IPC: 0.8142 (Simulation time: 00 hr 21 min 31 sec)
Heartbeat CPU 0 instructions: 240000083 cycles: 187253263 heartbeat IPC: 0.3632 cumulative IPC: 0.6214 (Simulation time: 00 hr 24 min 05 sec)
Heartbeat CPU 0 instructions: 250000084 cycles: 199939437 heartbeat IPC: 0.7883 cumulative IPC: 0.6488 (Simulation time: 00 hr 25 min 46 sec)
Heartbeat CPU 0 instructions: 260000085 cycles: 208350595 heartbeat IPC: 1.189 cumulative IPC: 0.702 (Simulation time: 00 hr 27 min 02 sec)
Heartbeat CPU 0 instructions: 270000086 cycles: 216973229 heartbeat IPC: 1.16 cumulative IPC: 0.7439 (Simulation time: 00 hr 28 min 22 sec)
Heartbeat CPU 0 instructions: 280000091 cycles: 226486362 heartbeat IPC: 1.051 cumulative IPC: 0.7721 (Simulation time: 00 hr 29 min 45 sec)
Heartbeat CPU 0 instructions: 290000096 cycles: 236488659 heartbeat IPC: 0.9998 cumulative IPC: 0.7922 (Simulation time: 00 hr 31 min 08 sec)
Heartbeat CPU 0 instructions: 300000101 cycles: 269616912 heartbeat IPC: 0.3019 cumulative IPC: 0.6815 (Simulation time: 00 hr 33 min 36 sec)
Heartbeat CPU 0 instructions: 310000103 cycles: 278172828 heartbeat IPC: 1.169 cumulative IPC: 0.7083 (Simulation time: 00 hr 34 min 28 sec)
Heartbeat CPU 0 instructions: 320000104 cycles: 285071738 heartbeat IPC: 1.45 cumulative IPC: 0.7399 (Simulation time: 00 hr 35 min 13 sec)
Heartbeat CPU 0 instructions: 330000107 cycles: 295428357 heartbeat IPC: 0.9656 cumulative IPC: 0.7534 (Simulation time: 00 hr 36 min 36 sec)
Heartbeat CPU 0 instructions: 340000112 cycles: 303373308 heartbeat IPC: 1.259 cumulative IPC: 0.7756 (Simulation time: 00 hr 37 min 45 sec)
Heartbeat CPU 0 instructions: 350000112 cycles: 330583639 heartbeat IPC: 0.3675 cumulative IPC: 0.7222 (Simulation time: 00 hr 39 min 48 sec)
Heartbeat CPU 0 instructions: 360000112 cycles: 343838272 heartbeat IPC: 0.7545 cumulative IPC: 0.7241 (Simulation time: 00 hr 41 min 01 sec)
Heartbeat CPU 0 instructions: 370000112 cycles: 350827031 heartbeat IPC: 1.431 cumulative IPC: 0.7458 (Simulation time: 00 hr 41 min 46 sec)
Heartbeat CPU 0 instructions: 380000112 cycles: 360455144 heartbeat IPC: 1.039 cumulative IPC: 0.7576 (Simulation time: 00 hr 43 min 02 sec)
Heartbeat CPU 0 instructions: 390000119 cycles: 368698175 heartbeat IPC: 1.213 cumulative IPC: 0.7729 (Simulation time: 00 hr 44 min 14 sec)
Heartbeat CPU 0 instructions: 400000119 cycles: 389493576 heartbeat IPC: 0.4809 cumulative IPC: 0.7501 (Simulation time: 00 hr 45 min 57 sec)
Heartbeat CPU 0 instructions: 410000119 cycles: 409053292 heartbeat IPC: 0.5113 cumulative IPC: 0.7338 (Simulation time: 00 hr 47 min 32 sec)
Heartbeat CPU 0 instructions: 420000125 cycles: 416258140 heartbeat IPC: 1.388 cumulative IPC: 0.7499 (Simulation time: 00 hr 48 min 19 sec)
Heartbeat CPU 0 instructions: 430000125 cycles: 425194971 heartbeat IPC: 1.119 cumulative IPC: 0.7608 (Simulation time: 00 hr 49 min 29 sec)
Heartbeat CPU 0 instructions: 440000131 cycles: 433761968 heartbeat IPC: 1.167 cumulative IPC: 0.772 (Simulation time: 00 hr 50 min 46 sec)
Heartbeat CPU 0 instructions: 450000133 cycles: 453230272 heartbeat IPC: 0.5137 cumulative IPC: 0.7568 (Simulation time: 00 hr 52 min 32 sec)
Heartbeat CPU 0 instructions: 460000136 cycles: 474068572 heartbeat IPC: 0.4799 cumulative IPC: 0.7403 (Simulation time: 00 hr 54 min 13 sec)
Heartbeat CPU 0 instructions: 470000138 cycles: 481431136 heartbeat IPC: 1.358 cumulative IPC: 0.753 (Simulation time: 00 hr 55 min 02 sec)
Heartbeat CPU 0 instructions: 480000143 cycles: 490392593 heartbeat IPC: 1.116 cumulative IPC: 0.7619 (Simulation time: 00 hr 56 min 08 sec)
Heartbeat CPU 0 instructions: 490000147 cycles: 499278222 heartbeat IPC: 1.125 cumulative IPC: 0.7705 (Simulation time: 00 hr 57 min 25 sec)
Heartbeat CPU 0 instructions: 500000147 cycles: 517314910 heartbeat IPC: 0.5544 cumulative IPC: 0.7606 (Simulation time: 00 hr 59 min 04 sec)
Heartbeat CPU 0 instructions: 510000148 cycles: 539581529 heartbeat IPC: 0.4491 cumulative IPC: 0.7439 (Simulation time: 01 hr 00 min 49 sec)
Heartbeat CPU 0 instructions: 520000151 cycles: 547114751 heartbeat IPC: 1.327 cumulative IPC: 0.7543 (Simulation time: 01 hr 01 min 37 sec)
Heartbeat CPU 0 instructions: 530000155 cycles: 555453628 heartbeat IPC: 1.199 cumulative IPC: 0.7629 (Simulation time: 01 hr 02 min 35 sec)
Heartbeat CPU 0 instructions: 540000156 cycles: 564990080 heartbeat IPC: 1.049 cumulative IPC: 0.769 (Simulation time: 01 hr 03 min 57 sec)
Heartbeat CPU 0 instructions: 550000156 cycles: 576741738 heartbeat IPC: 0.8509 cumulative IPC: 0.7712 (Simulation time: 01 hr 05 min 18 sec)
Heartbeat CPU 0 instructions: 560000158 cycles: 605127341 heartbeat IPC: 0.3523 cumulative IPC: 0.7465 (Simulation time: 01 hr 07 min 24 sec)
Heartbeat CPU 0 instructions: 570000161 cycles: 612871255 heartbeat IPC: 1.291 cumulative IPC: 0.7551 (Simulation time: 01 hr 08 min 14 sec)
Heartbeat CPU 0 instructions: 580000163 cycles: 620132455 heartbeat IPC: 1.377 cumulative IPC: 0.7642 (Simulation time: 01 hr 09 min 01 sec)
Heartbeat CPU 0 instructions: 590000168 cycles: 630645524 heartbeat IPC: 0.9512 cumulative IPC: 0.7681 (Simulation time: 01 hr 10 min 25 sec)
Heartbeat CPU 0 instructions: 600000174 cycles: 638159441 heartbeat IPC: 1.331 cumulative IPC: 0.7763 (Simulation time: 01 hr 11 min 26 sec)
Heartbeat CPU 0 instructions: 610000179 cycles: 670449725 heartbeat IPC: 0.3097 cumulative IPC: 0.7488 (Simulation time: 01 hr 13 min 40 sec)
Heartbeat CPU 0 instructions: 620000179 cycles: 678554326 heartbeat IPC: 1.234 cumulative IPC: 0.7558 (Simulation time: 01 hr 14 min 27 sec)
Heartbeat CPU 0 instructions: 630000181 cycles: 685360890 heartbeat IPC: 1.469 cumulative IPC: 0.7645 (Simulation time: 01 hr 15 min 09 sec)
Heartbeat CPU 0 instructions: 640000183 cycles: 696094234 heartbeat IPC: 0.9317 cumulative IPC: 0.7676 (Simulation time: 01 hr 16 min 27 sec)
Heartbeat CPU 0 instructions: 650000183 cycles: 703808643 heartbeat IPC: 1.296 cumulative IPC: 0.7746 (Simulation time: 01 hr 17 min 30 sec)
Heartbeat CPU 0 instructions: 660000183 cycles: 730492203 heartbeat IPC: 0.3748 cumulative IPC: 0.7571 (Simulation time: 01 hr 19 min 37 sec)
Heartbeat CPU 0 instructions: 670000185 cycles: 753494396 heartbeat IPC: 0.4347 cumulative IPC: 0.7453 (Simulation time: 01 hr 21 min 49 sec)
Heartbeat CPU 0 instructions: 680000191 cycles: 763432674 heartbeat IPC: 1.006 cumulative IPC: 0.7494 (Simulation time: 01 hr 23 min 05 sec)
Heartbeat CPU 0 instructions: 690000196 cycles: 772417721 heartbeat IPC: 1.113 cumulative IPC: 0.7544 (Simulation time: 01 hr 24 min 16 sec)
Simulation finished CPU 0 instructions: 500000004 cycles: 657149709 cumulative IPC: 0.7609 (Simulation time: 01 hr 25 min 18 sec)
Simulation complete CPU 0 instructions: 500000004 cycles: 657149709 cumulative IPC: 0.7609 (Simulation time: 01 hr 25 min 18 sec)

ChampSim completed all CPUs

=== Simulation ===
CPU 0 runs traces/motorBike/motorBikeTrace_S500B_T1B.champsimtrace.xz

Region of Interest Statistics

CPU 0 cumulative IPC: 0.7609 instructions: 500000004 cycles: 657149709
CPU 0 Branch Prediction Accuracy: 91.53% MPKI: 7.772 Average ROB Occupancy at Mispredict: 69.42
Branch type MPKI
BRANCH_DIRECT_JUMP: 0.000588
BRANCH_INDIRECT: 0.000136
BRANCH_CONDITIONAL: 7.769
BRANCH_DIRECT_CALL: 0.000728
BRANCH_INDIRECT_CALL: 0.000168
BRANCH_RETURN: 0.000816
IDLE Cycles
Fetch Idle Cycles 563971473
Fetch Blocked Cycles 99865354
IFetch Failed Events 4070
Fetch Buffer Not Empty 105563150
Decode Idle Cycles 506935756
Dispatch Idle Cycles 519376407
Execute Idle Cycles 469239959
Execute None Cycles 468898355
Execute Head Not Ready Cycles 91982
Execute Head Not Completed Cycles 461972872
Execute Pending Cycles 468353041
Execute Load Blocked Cycles 461972872
Scheduler Idle Cycles 557518543
Scheduler None Cycles 486429883
ROB Idle Cycles 526550589
LQ Full Events 23284358
SQ Full Events 211965453

cpu0->LLC TOTAL        ACCESS:   24413360 HIT:    5318115 MISS:   19095245 MISS_MERGE:     461288
cpu0->LLC LOAD         ACCESS:     891899 HIT:     315299 MISS:     576600 MISS_MERGE:        576
cpu0->LLC RFO          ACCESS:    1934110 HIT:      13153 MISS:    1920957 MISS_MERGE:          0
cpu0->LLC PREFETCH     ACCESS:   16783416 HIT:    2810196 MISS:   13973220 MISS_MERGE:     460712
cpu0->LLC WRITE        ACCESS:    4769525 HIT:    2178983 MISS:    2590542 MISS_MERGE:          0
cpu0->LLC TRANSLATION  ACCESS:      34410 HIT:        484 MISS:      33926 MISS_MERGE:          0
cpu0->LLC PREFETCH REQUESTED:     769263 ISSUED:     769263 USEFUL:     210838 USELESS:     205216
cpu0->LLC AVERAGE MISS LATENCY: 177.9 cycles
cpu0->cpu0_DTLB TOTAL        ACCESS:  319194916 HIT:  316992886 MISS:    2202030 MISS_MERGE:    1177436
cpu0->cpu0_DTLB LOAD         ACCESS:  319194916 HIT:  316992886 MISS:    2202030 MISS_MERGE:    1177436
cpu0->cpu0_DTLB RFO          ACCESS:          0 HIT:          0 MISS:          0 MISS_MERGE:          0
cpu0->cpu0_DTLB PREFETCH     ACCESS:          0 HIT:          0 MISS:          0 MISS_MERGE:          0
cpu0->cpu0_DTLB WRITE        ACCESS:          0 HIT:          0 MISS:          0 MISS_MERGE:          0
cpu0->cpu0_DTLB TRANSLATION  ACCESS:          0 HIT:          0 MISS:          0 MISS_MERGE:          0
cpu0->cpu0_DTLB PREFETCH REQUESTED:          0 ISSUED:          0 USEFUL:          0 USELESS:          0
cpu0->cpu0_DTLB AVERAGE MISS LATENCY: 21.22 cycles
cpu0->cpu0_ITLB TOTAL        ACCESS:  103429404 HIT:  103428880 MISS:        524 MISS_MERGE:        226
cpu0->cpu0_ITLB LOAD         ACCESS:  103429404 HIT:  103428880 MISS:        524 MISS_MERGE:        226
cpu0->cpu0_ITLB RFO          ACCESS:          0 HIT:          0 MISS:          0 MISS_MERGE:          0
cpu0->cpu0_ITLB PREFETCH     ACCESS:          0 HIT:          0 MISS:          0 MISS_MERGE:          0
cpu0->cpu0_ITLB WRITE        ACCESS:          0 HIT:          0 MISS:          0 MISS_MERGE:          0
cpu0->cpu0_ITLB TRANSLATION  ACCESS:          0 HIT:          0 MISS:          0 MISS_MERGE:          0
cpu0->cpu0_ITLB PREFETCH REQUESTED:          0 ISSUED:          0 USEFUL:          0 USELESS:          0
cpu0->cpu0_ITLB AVERAGE MISS LATENCY: 318.1 cycles
cpu0->cpu0_L1D TOTAL        ACCESS:  320113673 HIT:  248935978 MISS:   71177695 MISS_MERGE:   49632601
cpu0->cpu0_L1D LOAD         ACCESS:  207144010 HIT:  194558794 MISS:   12585216 MISS_MERGE:    8053332
cpu0->cpu0_L1D RFO          ACCESS:          0 HIT:          0 MISS:          0 MISS_MERGE:          0
cpu0->cpu0_L1D PREFETCH     ACCESS:   16860883 HIT:    1588171 MISS:   15272712 MISS_MERGE:     276646
cpu0->cpu0_L1D WRITE        ACCESS:   95648541 HIT:   52402472 MISS:   43246069 MISS_MERGE:   41302363
cpu0->cpu0_L1D TRANSLATION  ACCESS:     460239 HIT:     386541 MISS:      73698 MISS_MERGE:        260
cpu0->cpu0_L1D PREFETCH REQUESTED:   16993113 ISSUED:   16860875 USEFUL:   13676688 USELESS:    1319361
cpu0->cpu0_L1D AVERAGE MISS LATENCY: 169.4 cycles
cpu0->cpu0_L1I TOTAL        ACCESS:  103909140 HIT:  103907798 MISS:       1342 MISS_MERGE:        203
cpu0->cpu0_L1I LOAD         ACCESS:  103909140 HIT:  103907798 MISS:       1342 MISS_MERGE:        203
cpu0->cpu0_L1I RFO          ACCESS:          0 HIT:          0 MISS:          0 MISS_MERGE:          0
cpu0->cpu0_L1I PREFETCH     ACCESS:          0 HIT:          0 MISS:          0 MISS_MERGE:          0
cpu0->cpu0_L1I WRITE        ACCESS:          0 HIT:          0 MISS:          0 MISS_MERGE:          0
cpu0->cpu0_L1I TRANSLATION  ACCESS:          0 HIT:          0 MISS:          0 MISS_MERGE:          0
cpu0->cpu0_L1I PREFETCH REQUESTED:          0 ISSUED:          0 USEFUL:          0 USELESS:          0
cpu0->cpu0_L1I AVERAGE MISS LATENCY: 199.4 cycles
cpu0->cpu0_L2C TOTAL        ACCESS:  111687158 HIT:   67035199 MISS:   44651959 MISS_MERGE:   25777386
cpu0->cpu0_L2C LOAD         ACCESS:    4533023 HIT:    3322508 MISS:    1210515 MISS_MERGE:     318616
cpu0->cpu0_L2C RFO          ACCESS:    1943706 HIT:       9592 MISS:    1934114 MISS_MERGE:          4
cpu0->cpu0_L2C PREFETCH     ACCESS:   99121761 HIT:   57648841 MISS:   41472920 MISS_MERGE:   25458766
cpu0->cpu0_L2C WRITE        ACCESS:    6015230 HIT:    6015230 MISS:          0 MISS_MERGE:          0
cpu0->cpu0_L2C TRANSLATION  ACCESS:      73438 HIT:      39028 MISS:      34410 MISS_MERGE:          0
cpu0->cpu0_L2C PREFETCH REQUESTED:   88703840 ISSUED:   84125703 USEFUL:   12548300 USELESS:    2604779
cpu0->cpu0_L2C AVERAGE MISS LATENCY: 317.7 cycles
cpu0->cpu0_STLB TOTAL        ACCESS:    1024892 HIT:     795462 MISS:     229430 MISS_MERGE:          0
cpu0->cpu0_STLB LOAD         ACCESS:    1024892 HIT:     795462 MISS:     229430 MISS_MERGE:          0
cpu0->cpu0_STLB RFO          ACCESS:          0 HIT:          0 MISS:          0 MISS_MERGE:          0
cpu0->cpu0_STLB PREFETCH     ACCESS:          0 HIT:          0 MISS:          0 MISS_MERGE:          0
cpu0->cpu0_STLB WRITE        ACCESS:          0 HIT:          0 MISS:          0 MISS_MERGE:          0
cpu0->cpu0_STLB TRANSLATION  ACCESS:          0 HIT:          0 MISS:          0 MISS_MERGE:          0
cpu0->cpu0_STLB PREFETCH REQUESTED:          0 ISSUED:          0 USEFUL:          0 USELESS:          0
cpu0->cpu0_STLB AVERAGE MISS LATENCY: 71.83 cycles

DRAM Statistics

Channel 0 RQ ROW_BUFFER_HIT:     476090
  ROW_BUFFER_MISS:   15563290
  AVG DBUS CONGESTED CYCLE: 12.74
Channel 0 WQ ROW_BUFFER_HIT:     361878
  ROW_BUFFER_MISS:    2717319
  FULL:     109067
Channel 0 REFRESHES ISSUED:      54759
[SetDueling] === Final Statistics ===
  Winner: PC
  NoPref: miss_ratio=0.847838 (acc=100367, miss=85095)
  PC: miss_ratio=0.0992435 (acc=100329, miss=9957)
  PC_Delta: miss_ratio=0.10038 (acc=100189, miss=10057)
  PC|Delta: miss_ratio=0.100279 (acc=100131, miss=10041)
  PC&Delta: miss_ratio=0.102809 (acc=100108, miss=10292)
End: Mon Jul 20 10:54:21 AM UTC 2026
